Radii Cleaning Report
---------------------
Generated: 2026-03-16 18:38:59
Input file: data/single-soma.swc
Output file: data/single-soma_radii_cleaned.swc
Radius changes: 2972
Change rows: 2972

Node changes:
node_id=1 old=4.63671875 new=1.953125 reasons=above_type_max
node_id=2 old=4.78515625 new=1.953125 reasons=above_type_max
node_id=3 old=3.734375 new=1.953125 reasons=above_type_max
node_id=4 old=2.421875 new=1.953125 reasons=above_type_max
node_id=23 old=0.203125 new=0.744140625 reasons=local_dip
node_id=39 old=0.00390625 new=0.306640625 reasons=local_dip
node_id=40 old=0.49609375 new=0.3134765625 reasons=local_spike
node_id=42 old=0.01171875 new=0.3857421875 reasons=local_dip
node_id=46 old=0.00390625 new=0.3203125 reasons=local_dip
node_id=48 old=0.3515625 new=0.26953125 reasons=local_spike
node_id=55 old=0.00390625 new=0.38671875 reasons=local_dip
node_id=70 old=0.00390625 new=0.365234375 reasons=local_dip
node_id=77 old=0.0390625 new=0.5546875 reasons=local_dip
node_id=78 old=0.640625 new=0.482421875 reasons=local_spike
node_id=88 old=0.0078125 new=0.3359375 reasons=local_dip
node_id=89 old=0.3515625 new=0.255859375 reasons=local_spike
node_id=152 old=0.01171875 new=0.39453125 reasons=local_dip
node_id=153 old=0.5234375 new=0.373046875 reasons=local_spike
node_id=154 old=0.00390625 new=0.3828125 reasons=local_dip
node_id=160 old=0.0234375 new=0.3203125 reasons=local_dip
node_id=170 old=0.00390625 new=0.22265625 reasons=local_dip
node_id=180 old=0.00390625 new=0.380859375 reasons=local_dip
node_id=184 old=0.41015625 new=0.365234375 reasons=local_spike
node_id=190 old=0.640625 new=0.3203125 reasons=local_spike
node_id=191 old=0.0078125 new=0.3203125 reasons=local_dip
node_id=202 old=0.015625 new=0.39453125 reasons=local_dip
node_id=204 old=0.5234375 new=0.322265625 reasons=local_spike
node_id=205 old=0.015625 new=0.3076171875 reasons=local_dip
node_id=206 old=0.00390625 new=0.3359375 reasons=local_dip
node_id=262 old=0.00390625 new=0.349609375 reasons=local_dip
node_id=279 old=0.015625 new=0.48046875 reasons=local_dip
node_id=293 old=1.109375 new=0.41015625 reasons=local_spike
node_id=294 old=0.01953125 new=0.69921875 reasons=local_dip
node_id=301 old=0.01171875 new=0.36328125 reasons=local_dip
node_id=316 old=0.4375 new=0.248046875 reasons=local_spike
node_id=317 old=0.00390625 new=0.3623046875 reasons=local_dip
node_id=318 old=0.61328125 new=0.35693359375 reasons=local_spike
node_id=330 old=0.01953125 new=0.349609375 reasons=local_dip
node_id=337 old=0.0078125 new=0.365234375 reasons=local_dip
node_id=346 old=0.01171875 new=0.541015625 reasons=local_dip
node_id=352 old=0.58203125 new=0.21875 reasons=local_spike
node_id=374 old=0.01171875 new=0.263671875 reasons=local_dip
node_id=375 old=0.41015625 new=0.2197265625 reasons=local_spike
node_id=381 old=0.07421875 new=0.51171875 reasons=local_dip
node_id=383 old=0.73046875 new=0.3505859375 reasons=local_spike
node_id=384 old=0.00390625 new=0.4306640625 reasons=local_dip
node_id=395 old=0.015625 new=0.3583984375 reasons=local_dip
node_id=396 old=0.5234375 new=0.35498046875 reasons=local_spike
node_id=417 old=0.0078125 new=0.466796875 reasons=local_dip
node_id=418 old=0.5234375 new=0.3642578125 reasons=local_spike
node_id=421 old=0.0390625 new=0.5390625 reasons=local_dip
node_id=433 old=0.5234375 new=0.349609375 reasons=local_spike
node_id=434 old=0.01171875 new=0.4072265625 reasons=local_dip
node_id=452 old=0.01953125 new=0.3515625 reasons=local_dip
node_id=463 old=0.00390625 new=0.2998046875 reasons=local_dip
node_id=464 old=0.00390625 new=0.30322265625 reasons=local_dip
node_id=466 old=0.00390625 new=0.365234375 reasons=local_dip
node_id=475 old=0.49609375 new=0.365234375 reasons=local_spike
node_id=476 old=0.00390625 new=0.4013671875 reasons=local_dip
node_id=480 old=0.640625 new=0.466796875 reasons=local_spike
node_id=481 old=0.01171875 new=0.4951171875 reasons=local_dip
node_id=501 old=0.00390625 new=0.39453125 reasons=local_dip
node_id=548 old=0.00390625 new=0.3359375 reasons=local_dip
node_id=556 old=0.5546875 new=0.30029296875 reasons=local_spike
node_id=559 old=0.00390625 new=0.30029296875 reasons=local_dip
node_id=569 old=0.0234375 new=0.421875 reasons=local_dip
node_id=577 old=0.5234375 new=0.3359375 reasons=local_spike
node_id=578 old=0.00390625 new=0.423828125 reasons=local_dip
node_id=583 old=0.5234375 new=0.333984375 reasons=local_spike
node_id=584 old=0.05078125 new=0.3994140625 reasons=local_dip
node_id=597 old=0.12109375 new=0.59765625 reasons=local_dip
node_id=610 old=1.05078125 new=0.73046875 reasons=local_spike
node_id=611 old=0.00390625 new=0.73046875 reasons=local_dip
node_id=612 old=0.5546875 new=0.73046875 reasons=local_spike
node_id=613 old=0.203125 new=0.73046875 reasons=local_dip
node_id=635 old=0.61328125 new=0.453125 reasons=local_spike
node_id=636 old=0.00390625 new=0.474609375 reasons=local_dip
node_id=661 old=0.03515625 new=0.568359375 reasons=local_dip
node_id=664 old=0.17578125 new=0.568359375 reasons=local_dip
node_id=670 old=0.17578125 new=0.5390625 reasons=local_dip
node_id=679 old=0.0234375 new=0.423828125 reasons=local_dip
node_id=680 old=0.3203125 new=0.2998046875 reasons=local_spike
node_id=694 old=0.69921875 new=0.248046875 reasons=local_spike
node_id=695 old=0.00390625 new=0.2412109375 reasons=local_dip
node_id=696 old=0.5234375 new=0.23779296875 reasons=local_spike
node_id=711 old=0.0390625 new=0.41015625 reasons=local_dip
node_id=735 old=0.08984375 new=0.845703125 reasons=local_dip
node_id=788 old=0.0390625 new=0.3359375 reasons=local_dip
node_id=789 old=0.49609375 new=0.298828125 reasons=local_spike
node_id=792 old=0.41015625 new=0.349609375 reasons=local_spike
node_id=793 old=0.015625 new=0.2255859375 reasons=local_dip
node_id=794 old=0.3515625 new=0.21435546875 reasons=local_spike
node_id=803 old=0.0390625 new=0.263671875 reasons=local_dip
node_id=804 old=0.41015625 new=0.2197265625 reasons=local_spike
node_id=806 old=0.41015625 new=0.263671875 reasons=local_spike
node_id=807 old=0.015625 new=0.3076171875 reasons=local_dip
node_id=808 old=0.5546875 new=0.32958984375 reasons=local_spike
node_id=810 old=0.0078125 new=0.2119140625 reasons=local_dip
node_id=821 old=0.0078125 new=0.205078125 reasons=local_dip
node_id=822 old=0.69921875 new=0.2197265625 reasons=local_spike
node_id=827 old=0.69921875 new=0.5546875 reasons=local_spike
node_id=828 old=0.01953125 new=0.61328125 reasons=local_dip
node_id=831 old=0.00390625 new=0.240234375 reasons=local_dip
node_id=832 old=0.37890625 new=0.2509765625 reasons=local_spike
node_id=835 old=0.7578125 new=0.3515625 reasons=local_spike
node_id=836 old=0.00390625 new=0.2109375 reasons=local_dip
node_id=856 old=0.00390625 new=0.33544921875 reasons=local_dip
node_id=860 old=0.49609375 new=0.26171875 reasons=local_spike
node_id=861 old=0.00390625 new=0.232421875 reasons=local_dip
node_id=889 old=0.5234375 new=0.349609375 reasons=local_spike
node_id=890 old=0.00390625 new=0.4072265625 reasons=local_dip
node_id=903 old=0.0078125 new=0.263671875 reasons=local_dip
node_id=922 old=0.00390625 new=0.349609375 reasons=local_dip
node_id=923 old=0.4375 new=0.2919921875 reasons=local_spike
node_id=945 old=0.46484375 new=0.416015625 reasons=local_spike
node_id=946 old=0.01171875 new=0.36474609375 reasons=local_dip
node_id=953 old=0.00390625 new=0.39453125 reasons=local_dip
node_id=954 old=0.37890625 new=0.373046875 reasons=local_spike
node_id=955 old=0.00390625 new=0.3623046875 reasons=local_dip
node_id=971 old=0.0078125 new=0.365234375 reasons=local_dip
node_id=979 old=0.671875 new=0.27734375 reasons=local_spike
node_id=980 old=0.01953125 new=0.2265625 reasons=local_dip
node_id=983 old=1.16796875 new=0.423828125 reasons=local_spike
node_id=984 old=0.0078125 new=0.3583984375 reasons=local_dip
node_id=988 old=0.41015625 new=0.248046875 reasons=local_spike
node_id=989 old=0.0078125 new=0.2412109375 reasons=local_dip
node_id=990 old=0.3515625 new=0.23779296875 reasons=local_spike
node_id=1009 old=0.46484375 new=0.3291015625 reasons=local_spike
node_id=1018 old=0.00390625 new=0.3203125 reasons=local_dip
node_id=1020 old=0.00390625 new=0.380859375 reasons=local_dip
node_id=1025 old=0.58203125 new=0.234375 reasons=local_spike
node_id=1026 old=0.015625 new=0.205078125 reasons=local_dip
node_id=1027 old=0.37890625 new=0.1904296875 reasons=local_spike
node_id=1033 old=0.49609375 new=0.365234375 reasons=local_spike
node_id=1034 old=0.01953125 new=0.4013671875 reasons=local_dip
node_id=1037 old=0.5234375 new=0.4736328125 reasons=local_spike
node_id=1040 old=0.00390625 new=0.46484375 reasons=local_dip
node_id=1041 old=0.69921875 new=0.46484375 reasons=local_spike
node_id=1049 old=0.90234375 new=0.421875 reasons=local_spike
node_id=1050 old=0.03515625 new=0.37109375 reasons=local_dip
node_id=1076 old=0.5234375 new=0.3359375 reasons=local_spike
node_id=1077 old=0.0078125 new=0.34375 reasons=local_dip
node_id=1093 old=0.58203125 new=0.408203125 reasons=local_spike
node_id=1094 old=0.015625 new=0.4814453125 reasons=local_dip
node_id=1111 old=0.61328125 new=0.27734375 reasons=local_spike
node_id=1113 old=0.671875 new=0.3515625 reasons=local_spike
node_id=1114 old=0.01171875 new=0.3515625 reasons=local_dip
node_id=1115 old=0.01953125 new=0.49609375 reasons=local_dip
node_id=1123 old=0.00390625 new=0.3515625 reasons=local_dip
node_id=1124 old=0.73046875 new=0.322265625 reasons=local_spike
node_id=1125 old=0.0234375 new=0.423828125 reasons=local_dip
node_id=1158 old=0.00390625 new=0.306640625 reasons=local_dip
node_id=1167 old=0.01171875 new=0.541015625 reasons=local_dip
node_id=1183 old=0.05078125 new=0.5546875 reasons=local_dip
node_id=1201 old=0.01171875 new=0.466796875 reasons=local_dip
node_id=1218 old=0.00390625 new=0.3359375 reasons=local_dip
node_id=1242 old=0.69921875 new=0.3359375 reasons=local_spike
node_id=1243 old=0.0390625 new=0.328125 reasons=local_dip
node_id=1259 old=0.640625 new=0.349609375 reasons=local_spike
node_id=1260 old=0.01953125 new=0.533203125 reasons=local_dip
node_id=1261 old=0.3515625 new=0.6318359375 reasons=local_spike
node_id=1262 old=0.17578125 new=0.68115234375 reasons=local_dip
node_id=1292 old=0.46484375 new=0.248046875 reasons=local_spike
node_id=1293 old=0.01171875 new=0.2255859375 reasons=local_dip
node_id=1294 old=0.41015625 new=0.21435546875 reasons=local_spike
node_id=1302 old=0.5234375 new=0.263671875 reasons=local_spike
node_id=1303 old=0.01171875 new=0.2197265625 reasons=local_dip
node_id=1310 old=0.49609375 new=0.466796875 reasons=local_spike
node_id=1311 old=0.01171875 new=0.34375 reasons=local_dip
node_id=1315 old=0.17578125 new=0.509765625 reasons=local_dip
node_id=1318 old=0.17578125 new=0.3515625 reasons=local_dip
node_id=1319 old=0.69921875 new=0.3515625 reasons=local_spike
node_id=1320 old=0.03515625 new=0.3515625 reasons=local_dip
node_id=1321 old=0.69921875 new=0.3515625 reasons=local_spike
node_id=1354 old=0.05859375 new=0.466796875 reasons=local_dip
node_id=1360 old=0.5234375 new=0.291015625 reasons=local_spike
node_id=1361 old=0.00390625 new=0.3056640625 reasons=local_dip
node_id=1379 old=0.203125 new=0.642578125 reasons=local_dip
node_id=1386 old=0.875 new=0.5390625 reasons=local_spike
node_id=1387 old=0.0078125 new=0.517578125 reasons=local_dip
node_id=1410 old=0.7578125 new=0.3203125 reasons=local_spike
node_id=1411 old=0.00390625 new=0.26171875 reasons=local_dip
node_id=1412 old=0.49609375 new=0.232421875 reasons=local_spike
node_id=1424 old=0.203125 new=0.65625 reasons=local_dip
node_id=1432 old=0.0390625 new=0.626953125 reasons=local_dip
node_id=1451 old=0.0390625 new=0.365234375 reasons=local_dip
node_id=1452 old=1.078125 new=0.4306640625 reasons=local_spike
node_id=1476 old=0.0078125 new=0.4375 reasons=local_dip
node_id=1498 old=0.58203125 new=0.3359375 reasons=local_spike
node_id=1499 old=0.00390625 new=0.373046875 reasons=local_dip
node_id=1500 old=0.7578125 new=0.3916015625 reasons=local_spike
node_id=1534 old=0.00390625 new=0.408203125 reasons=local_dip
node_id=1545 old=0.17578125 new=0.58203125 reasons=local_dip
node_id=1555 old=0.0078125 new=0.5390625 reasons=local_dip
node_id=1579 old=0.00390625 new=0.59765625 reasons=local_dip
node_id=1600 old=0.00390625 new=0.482421875 reasons=local_dip
node_id=1624 old=0.17578125 new=0.669921875 reasons=local_dip
node_id=1637 old=0.015625 new=0.49609375 reasons=local_dip
node_id=1642 old=0.00390625 new=0.49609375 reasons=local_dip
node_id=1648 old=0.0078125 new=0.494140625 reasons=local_dip
node_id=1649 old=0.7578125 new=0.4794921875 reasons=local_spike
node_id=1650 old=0.46484375 new=0.47216796875 reasons=local_dip
node_id=1651 old=14.84765625 new=0.468505859375 reasons=above_type_max,local_spike
node_id=1652 old=6.2109375 new=0.4666748046875 reasons=above_type_max
node_id=1653 old=9.9453125 new=0.46575927734375 reasons=above_type_max,local_spike
node_id=1654 old=0.81640625 new=0.465301513671875 reasons=local_dip
node_id=1656 old=0.0078125 new=0.421875 reasons=local_dip
node_id=1657 old=16.56640625 new=0.400390625 reasons=above_type_max,local_spike
node_id=1658 old=1.3125 new=0.3896484375 reasons=local_dip
node_id=1661 old=0.01953125 new=0.61328125 reasons=local_dip
node_id=1662 old=0.46484375 new=0.642578125 reasons=local_dip
node_id=1663 old=8.57421875 new=0.6572265625 reasons=above_type_max
node_id=1664 old=14.81640625 new=0.66455078125 reasons=above_type_max
node_id=1665 old=31.67578125 new=0.668212890625 reasons=above_type_max
node_id=1666 old=16.421875 new=0.6700439453125 reasons=above_type_max
node_id=1667 old=20.73828125 new=0.67095947265625 reasons=above_type_max
node_id=1668 old=17.23828125 new=0.671417236328125 reasons=above_type_max
node_id=1669 old=8.953125 new=0.6716461181640625 reasons=above_type_max
node_id=1670 old=4.75390625 new=0.6717605590820312 reasons=above_type_max
node_id=1671 old=4.40234375 new=0.6718177795410156 reasons=above_type_max
node_id=1672 old=8.8671875 new=0.6718463897705078 reasons=above_type_max,local_spike
node_id=1673 old=0.3515625 new=0.6718606948852539 reasons=local_dip
node_id=1674 old=44.04296875 new=0.671867847442627 reasons=above_type_max
node_id=1675 old=45.9375 new=0.6718714237213135 reasons=above_type_max
node_id=1676 old=1.16796875 new=0.6718732118606567 reasons=local_dip
node_id=1680 old=0.00390625 new=0.349609375 reasons=local_dip
node_id=1681 old=0.7578125 new=0.3642578125 reasons=local_spike
node_id=1683 old=0.26171875 new=0.509765625 reasons=local_dip
node_id=1684 old=3.08984375 new=0.5751953125 reasons=above_type_max,local_spike
node_id=1685 old=0.203125 new=0.60791015625 reasons=local_dip
node_id=1686 old=4.8984375 new=0.624267578125 reasons=above_type_max
node_id=1687 old=17.32421875 new=0.6324462890625 reasons=above_type_max
node_id=1688 old=20.359375 new=0.63653564453125 reasons=above_type_max
node_id=1689 old=0.3515625 new=0.638580322265625 reasons=local_dip
node_id=1690 old=0.69921875 new=0.6396026611328125 reasons=local_spike
node_id=1691 old=0.0078125 new=0.6401138305664062 reasons=local_dip
node_id=1702 old=0.58203125 new=0.263671875 reasons=local_spike
node_id=1703 old=0.00390625 new=0.2197265625 reasons=local_dip
node_id=1704 old=21.93359375 new=0.19775390625 reasons=above_type_max,local_spike
node_id=1705 old=14.5546875 new=0.186767578125 reasons=above_type_max
node_id=1706 old=0.12109375 new=0.1812744140625 reasons=local_dip
node_id=1707 old=0.00390625 new=0.17852783203125 reasons=local_dip
node_id=1708 old=0.46484375 new=0.177154541015625 reasons=local_spike
node_id=1710 old=0.4375 new=0.306640625 reasons=local_dip
node_id=1711 old=5.3359375 new=0.3720703125 reasons=above_type_max,local_dip
node_id=1712 old=31.99609375 new=0.40478515625 reasons=above_type_max
node_id=1713 old=30.828125 new=0.421142578125 reasons=above_type_max
node_id=1714 old=0.17578125 new=0.4293212890625 reasons=local_dip
node_id=1715 old=29.984375 new=0.43341064453125 reasons=above_type_max,local_spike
node_id=1716 old=0.203125 new=0.435455322265625 reasons=local_dip
node_id=1719 old=0.58203125 new=0.421875 reasons=local_dip
node_id=1720 old=16.7109375 new=0.400390625 reasons=above_type_max,local_spike
node_id=1721 old=0.00390625 new=0.3896484375 reasons=local_dip
node_id=1722 old=0.640625 new=0.38427734375 reasons=local_spike
node_id=1734 old=0.015625 new=0.71484375 reasons=local_dip
node_id=1751 old=0.02734375 new=0.451171875 reasons=local_dip
node_id=1780 old=0.41015625 new=0.298828125 reasons=local_dip
node_id=1781 old=6.18359375 new=0.2880859375 reasons=above_type_max,local_spike
node_id=1789 old=0.93359375 new=0.59765625 reasons=local_spike
node_id=1790 old=0.0078125 new=0.634765625 reasons=local_dip
node_id=1860 old=0.0234375 new=0.771484375 reasons=local_dip
node_id=1919 old=0.00390625 new=0.541015625 reasons=local_dip
node_id=1963 old=0.17578125 new=0.626953125 reasons=local_dip
node_id=1977 old=0.046875 new=1.1953125 reasons=local_dip
node_id=2001 old=1.72265625 new=1.005859375 reasons=local_spike
node_id=2002 old=0.09375 new=0.9990234375 reasons=local_dip
node_id=2024 old=0.03515625 new=0.7421875 reasons=local_dip
node_id=2025 old=0.9921875 new=0.662109375 reasons=local_spike
node_id=2053 old=0.16796875 new=0.685546875 reasons=local_dip
node_id=2054 old=1.25390625 new=0.5322265625 reasons=local_spike
node_id=2080 old=0.875 new=0.59765625 reasons=local_spike
node_id=2081 old=0.015625 new=0.634765625 reasons=local_dip
node_id=2093 old=0.84765625 new=0.408203125 reasons=local_spike
node_id=2094 old=0.0234375 new=0.3935546875 reasons=local_dip
node_id=2131 old=0.08984375 new=0.81640625 reasons=local_dip
node_id=2132 old=1.3984375 new=0.81640625 reasons=local_spike
node_id=2173 old=0.140625 new=1.181640625 reasons=local_dip
node_id=2175 old=2.04296875 new=1.13671875 reasons=above_type_max
node_id=2209 old=0.01953125 new=1.3125 reasons=local_dip
node_id=2234 old=0.01171875 new=0.875 reasons=local_dip
node_id=2261 old=1.45703125 new=0.875 reasons=local_spike
node_id=2262 old=0.0546875 new=0.83203125 reasons=local_dip
node_id=2280 old=0.04296875 new=1.123046875 reasons=local_dip
node_id=2314 old=2.04296875 new=1.47265625 reasons=above_type_max
node_id=2323 old=1.515625 new=0.845703125 reasons=local_spike
node_id=2324 old=0.01953125 new=0.7724609375 reasons=local_dip
node_id=2345 old=1.92578125 new=1.06640625 reasons=local_spike
node_id=2346 old=0.0703125 new=0.95703125 reasons=local_dip
node_id=2379 old=0.01953125 new=1.09375 reasons=local_dip
node_id=2380 old=0.875 new=0.80859375 reasons=local_spike
node_id=2419 old=0.03125 new=0.890625 reasons=local_dip
node_id=2420 old=0.90234375 new=0.693359375 reasons=local_spike
node_id=2443 old=0.21875 new=1.326171875 reasons=local_dip
node_id=2454 old=1.80859375 new=0.68359375 reasons=local_spike
node_id=2455 old=0.3203125 new=0.57421875 reasons=local_dip
node_id=2478 old=0.078125 new=1.384765625 reasons=local_dip
node_id=2509 old=0.0859375 new=1.15234375 reasons=local_dip
node_id=2510 old=1.69140625 new=0.955078125 reasons=local_spike
node_id=2536 old=0.203125 new=0.65625 reasons=local_dip
node_id=2560 old=0.01171875 new=0.728515625 reasons=local_dip
node_id=2577 old=0.03515625 new=0.859375 reasons=local_dip
node_id=2624 old=1.1953125 new=0.91796875 reasons=local_spike
node_id=2625 old=0.08984375 new=1.0859375 reasons=local_dip
node_id=2642 old=1.60546875 new=0.9921875 reasons=local_spike
node_id=2643 old=0.0390625 new=1.09375 reasons=local_dip
node_id=2692 old=1.078125 new=0.81640625 reasons=local_spike
node_id=2693 old=0.0390625 new=0.875 reasons=local_dip
node_id=2756 old=0.0078125 new=0.69921875 reasons=local_dip
node_id=2777 old=0.0078125 new=0.875 reasons=local_dip
node_id=2832 old=0.00390625 new=0.875 reasons=local_dip
node_id=2841 old=2.1875 new=1.720703125 reasons=above_type_max
node_id=2842 old=2.68359375 new=1.8525390625 reasons=above_type_max
node_id=2843 old=2.88671875 new=1.91845703125 reasons=above_type_max
node_id=2844 old=2.24609375 new=1.951416015625 reasons=above_type_max
node_id=2905 old=0.09765625 new=0.69921875 reasons=local_dip
node_id=2966 old=1.28515625 new=0.466796875 reasons=local_spike
node_id=2967 old=0.015625 new=0.4091796875 reasons=local_dip
node_id=2968 old=0.671875 new=0.38037109375 reasons=local_spike
node_id=3007 old=1.13671875 new=0.525390625 reasons=local_spike
node_id=3008 old=0.00390625 new=0.5107421875 reasons=local_dip
node_id=3030 old=0.17578125 new=0.5703125 reasons=local_dip
node_id=3043 old=1.16796875 new=0.568359375 reasons=local_spike
node_id=3044 old=0.015625 new=0.5166015625 reasons=local_dip
node_id=3089 old=0.234375 new=1.01953125 reasons=local_dip
node_id=3101 old=0.19921875 new=0.81640625 reasons=local_dip
node_id=3121 old=0.17578125 new=0.5390625 reasons=local_dip
node_id=3136 old=1.8671875 new=0.9765625 reasons=local_spike
node_id=3137 old=0.046875 new=0.8671875 reasons=local_dip
node_id=3168 old=0.3203125 new=0.91796875 reasons=local_dip
node_id=3176 old=1.92578125 new=0.904296875 reasons=local_spike
node_id=3177 old=0.00390625 new=0.7001953125 reasons=local_dip
node_id=3178 old=0.9921875 new=0.59814453125 reasons=local_spike
node_id=3190 old=0.00390625 new=0.875 reasons=local_dip
node_id=3230 old=0.0078125 new=0.669921875 reasons=local_dip
node_id=3265 old=1.28515625 new=0.669921875 reasons=local_spike
node_id=3266 old=0.046875 new=0.6259765625 reasons=local_dip
node_id=3308 old=0.015625 new=0.49609375 reasons=local_dip
node_id=3309 old=1.078125 new=0.525390625 reasons=local_spike
node_id=3373 old=0.00390625 new=0.919921875 reasons=local_dip
node_id=3417 old=0.17578125 new=0.552734375 reasons=local_dip
node_id=3502 old=2.01171875 new=1.064453125 reasons=above_type_max
node_id=3509 old=0.03125 new=0.69921875 reasons=local_dip
node_id=3573 old=0.0703125 new=0.904296875 reasons=local_dip
node_id=3574 old=1.28515625 new=0.7294921875 reasons=local_spike
node_id=3632 old=0.00390625 new=0.611328125 reasons=local_dip
node_id=3658 old=0.0078125 new=0.525390625 reasons=local_dip
node_id=3670 old=0.17578125 new=0.568359375 reasons=local_dip
node_id=3698 old=0.13671875 new=1.224609375 reasons=local_dip
node_id=3766 old=0.15625 new=0.845703125 reasons=local_dip
node_id=3816 old=0.00390625 new=0.669921875 reasons=local_dip
node_id=3854 old=0.05078125 new=0.408203125 reasons=local_dip
node_id=3855 old=0.81640625 new=0.4658203125 reasons=local_spike
node_id=3893 old=0.875 new=0.5390625 reasons=local_spike
node_id=3894 old=0.00390625 new=0.517578125 reasons=local_dip
node_id=3902 old=0.17578125 new=0.568359375 reasons=local_dip
node_id=3942 old=0.0078125 new=0.4375 reasons=local_dip
node_id=3996 old=0.08984375 new=1.064453125 reasons=local_dip
node_id=4026 old=0.03515625 new=0.9765625 reasons=local_dip
node_id=4070 old=1.4296875 new=0.626953125 reasons=local_spike
node_id=4071 old=0.0703125 new=0.5029296875 reasons=local_dip
node_id=4081 old=0.203125 new=0.68359375 reasons=local_dip
node_id=4104 old=0.26171875 new=0.890625 reasons=local_dip
node_id=4116 old=0.17578125 new=0.58203125 reasons=local_dip
node_id=4134 old=1.2265625 new=0.525390625 reasons=local_spike
node_id=4135 old=0.03125 new=0.4814453125 reasons=local_dip
node_id=4160 old=0.00390625 new=0.69921875 reasons=local_dip
node_id=4192 old=0.0234375 new=0.71484375 reasons=local_dip
node_id=4200 old=0.17578125 new=0.5234375 reasons=local_dip
node_id=4207 old=0.90234375 new=0.482421875 reasons=local_spike
node_id=4208 old=0.00390625 new=0.4169921875 reasons=local_dip
node_id=4209 old=0.640625 new=0.38427734375 reasons=local_spike
node_id=4237 old=0.7578125 new=0.509765625 reasons=local_spike
node_id=4238 old=0.02734375 new=0.5322265625 reasons=local_dip
node_id=4271 old=0.03515625 new=0.642578125 reasons=local_dip
node_id=4287 old=1.2265625 new=0.509765625 reasons=local_spike
node_id=4288 old=0.03125 new=0.4150390625 reasons=local_dip
node_id=4301 old=0.0234375 new=0.61328125 reasons=local_dip
node_id=4346 old=0.04296875 new=0.525390625 reasons=local_dip
node_id=4389 old=0.015625 new=0.787109375 reasons=local_dip
node_id=4427 old=0.06640625 new=0.65625 reasons=local_dip
node_id=4432 old=0.17578125 new=0.611328125 reasons=local_dip
node_id=4451 old=0.17578125 new=0.59765625 reasons=local_dip
node_id=4493 old=0.10546875 new=0.81640625 reasons=local_dip
node_id=4496 old=0.29296875 new=0.875 reasons=local_dip
node_id=4538 old=0.015625 new=0.36328125 reasons=local_dip
node_id=4539 old=0.93359375 new=0.443359375 reasons=local_spike
node_id=4541 old=0.17578125 new=0.36328125 reasons=local_dip
node_id=4542 old=0.61328125 new=0.283203125 reasons=local_spike
node_id=4560 old=0.17578125 new=0.568359375 reasons=local_dip
node_id=4607 old=0.00390625 new=0.701171875 reasons=local_dip
node_id=4647 old=0.17578125 new=0.583984375 reasons=local_dip
node_id=4664 old=0.01171875 new=0.58203125 reasons=local_dip
node_id=4686 old=0.03515625 new=0.80078125 reasons=local_dip
node_id=4743 old=0.09375 new=0.701171875 reasons=local_dip
node_id=4792 old=0.015625 new=0.80078125 reasons=local_dip
node_id=4841 old=0.26171875 new=0.744140625 reasons=local_dip
node_id=4842 old=0.9921875 new=0.7802734375 reasons=local_spike
node_id=4843 old=0.29296875 new=0.79833984375 reasons=local_dip
node_id=4844 old=0.7890625 new=0.807373046875 reasons=local_spike
node_id=4845 old=0.02734375 new=0.8118896484375 reasons=local_dip
node_id=4902 old=0.015625 new=1.109375 reasons=local_dip
node_id=4931 old=0.90234375 new=0.49609375 reasons=local_spike
node_id=4932 old=0.03515625 new=0.453125 reasons=local_dip
node_id=4933 old=0.9609375 new=0.431640625 reasons=local_spike
node_id=4951 old=0.234375 new=0.701171875 reasons=local_dip
node_id=4995 old=0.0234375 new=0.65625 reasons=local_dip
node_id=5039 old=0.203125 new=0.91796875 reasons=local_dip
node_id=5059 old=0.00390625 new=0.3515625 reasons=local_dip
node_id=5067 old=0.203125 new=0.728515625 reasons=local_dip
node_id=5074 old=0.234375 new=0.669921875 reasons=local_dip
node_id=5086 old=0.00390625 new=0.3798828125 reasons=local_dip
node_id=5087 old=0.640625 new=0.39501953125 reasons=local_spike
node_id=5106 old=0.0078125 new=0.51171875 reasons=local_dip
node_id=5139 old=0.0078125 new=0.380859375 reasons=local_dip
node_id=5158 old=0.5234375 new=0.3720703125 reasons=local_spike
node_id=5159 old=0.00390625 new=0.3642578125 reasons=local_dip
node_id=5183 old=0.015625 new=0.466796875 reasons=local_dip
node_id=5192 old=0.69921875 new=0.3583984375 reasons=local_spike
node_id=5193 old=0.00390625 new=0.29296875 reasons=local_dip
node_id=5200 old=0.5546875 new=0.365234375 reasons=local_spike
node_id=5201 old=0.03125 new=0.3720703125 reasons=local_dip
node_id=5208 old=0.640625 new=0.423828125 reasons=local_spike
node_id=5209 old=0.03515625 new=0.4599609375 reasons=local_dip
node_id=5213 old=0.0078125 new=0.263671875 reasons=local_dip
node_id=5218 old=0.00390625 new=0.408203125 reasons=local_dip
node_id=5225 old=0.0078125 new=0.787109375 reasons=local_dip
node_id=5226 old=1.25390625 new=0.7294921875 reasons=local_spike
node_id=5231 old=1.01953125 new=0.685546875 reasons=local_spike
node_id=5232 old=0.01953125 new=0.6787109375 reasons=local_dip
node_id=5237 old=0.00390625 new=0.451171875 reasons=local_dip
node_id=5240 old=0.00390625 new=0.5546875 reasons=local_dip
node_id=5241 old=0.3515625 new=0.525390625 reasons=local_spike
node_id=5242 old=0.00390625 new=0.5107421875 reasons=local_dip
node_id=5243 old=0.3515625 new=0.50341796875 reasons=local_spike
node_id=5244 old=0.01171875 new=0.499755859375 reasons=local_dip
node_id=5248 old=0.203125 new=0.611328125 reasons=local_dip
node_id=5251 old=0.01171875 new=0.4375 reasons=local_dip
node_id=5255 old=0.640625 new=0.349609375 reasons=local_spike
node_id=5256 old=0.00390625 new=0.3349609375 reasons=local_dip
node_id=5275 old=0.58203125 new=0.423828125 reasons=local_spike
node_id=5276 old=0.01953125 new=0.4599609375 reasons=local_dip
node_id=5285 old=0.17578125 new=0.509765625 reasons=local_dip
node_id=5286 old=0.69921875 new=0.3857421875 reasons=local_spike
node_id=5287 old=0.078125 new=0.32373046875 reasons=local_dip
node_id=5292 old=0.58203125 new=0.421875 reasons=local_spike
node_id=5293 old=0.015625 new=0.59765625 reasons=local_dip
node_id=5297 old=0.203125 new=0.58203125 reasons=local_dip
node_id=5300 old=0.00390625 new=0.380859375 reasons=local_dip
node_id=5309 old=0.49609375 new=0.421875 reasons=local_spike
node_id=5310 old=0.015625 new=0.47265625 reasons=local_dip
node_id=5335 old=0.04296875 new=0.509765625 reasons=local_dip
node_id=5344 old=0.015625 new=0.306640625 reasons=local_dip
node_id=5365 old=0.0078125 new=0.509765625 reasons=local_dip
node_id=5369 old=0.875 new=0.306640625 reasons=local_spike
node_id=5378 old=0.5234375 new=0.408203125 reasons=local_spike
node_id=5379 old=0.02734375 new=0.3515625 reasons=local_dip
node_id=5405 old=0.00390625 new=0.248046875 reasons=local_dip
node_id=5406 old=0.640625 new=0.2412109375 reasons=local_spike
node_id=5407 old=0.015625 new=0.23779296875 reasons=local_dip
node_id=5416 old=0.00390625 new=0.29296875 reasons=local_dip
node_id=5423 old=0.02734375 new=0.3359375 reasons=local_dip
node_id=5426 old=0.00390625 new=0.248046875 reasons=local_dip
node_id=5434 old=0.05078125 new=0.3359375 reasons=local_dip
node_id=5450 old=0.02734375 new=0.3837890625 reasons=local_dip
node_id=5462 old=0.17578125 new=0.509765625 reasons=local_dip
node_id=5469 old=0.37890625 new=0.4306640625 reasons=local_spike
node_id=5470 old=0.01171875 new=0.4267578125 reasons=local_dip
node_id=5479 old=0.4375 new=0.21875 reasons=local_spike
node_id=5480 old=0.01171875 new=0.240234375 reasons=local_dip
node_id=5486 old=0.00390625 new=0.306640625 reasons=local_dip
node_id=5487 old=0.5234375 new=0.3291015625 reasons=local_spike
node_id=5500 old=0.0078125 new=0.525390625 reasons=local_dip
node_id=5504 old=0.0078125 new=0.3359375 reasons=local_dip
node_id=5525 old=0.01953125 new=0.525390625 reasons=local_dip
node_id=5526 old=0.5234375 new=0.4384765625 reasons=local_spike
node_id=5531 old=0.00390625 new=0.380859375 reasons=local_dip
node_id=5535 old=0.00390625 new=0.7890625 reasons=local_dip
node_id=5536 old=0.69921875 new=0.7890625 reasons=local_spike
node_id=5537 old=0.02734375 new=0.35400390625 reasons=local_dip
node_id=5550 old=0.0078125 new=0.333984375 reasons=local_dip
node_id=5553 old=0.0078125 new=0.28173828125 reasons=local_dip
node_id=5565 old=0.0078125 new=0.29296875 reasons=local_dip
node_id=5569 old=0.0078125 new=0.3359375 reasons=local_dip
node_id=5588 old=0.41015625 new=0.69921875 reasons=local_dip
node_id=5589 old=2.76953125 new=0.787109375 reasons=above_type_max,local_spike
node_id=5595 old=0.01953125 new=0.3515625 reasons=local_dip
node_id=5598 old=0.0078125 new=0.46484375 reasons=local_dip
node_id=5605 old=0.00390625 new=0.3359375 reasons=local_dip
node_id=5606 old=0.73046875 new=0.328125 reasons=local_spike
node_id=5610 old=0.81640625 new=0.453125 reasons=local_spike
node_id=5611 old=0.0078125 new=0.40234375 reasons=local_dip
node_id=5615 old=0.01171875 new=0.49853515625 reasons=local_dip
node_id=5622 old=0.00390625 new=0.3515625 reasons=local_dip
node_id=5623 old=0.69921875 new=0.3515625 reasons=local_spike
node_id=5630 old=0.00390625 new=0.306640625 reasons=local_dip
node_id=5632 old=0.4375 new=0.3203125 reasons=local_spike
node_id=5633 old=0.03125 new=0.48486328125 reasons=local_dip
node_id=5648 old=0.01171875 new=0.263671875 reasons=local_dip
node_id=5649 old=0.3515625 new=0.2197265625 reasons=local_spike
node_id=5660 old=0.81640625 new=0.29296875 reasons=local_spike
node_id=5661 old=0.01171875 new=0.234375 reasons=local_dip
node_id=5675 old=0.17578125 new=0.599609375 reasons=local_dip
node_id=5678 old=0.02734375 new=0.421875 reasons=local_dip
node_id=5702 old=0.17578125 new=0.59765625 reasons=local_dip
node_id=5716 old=0.015625 new=0.306640625 reasons=local_dip
node_id=5720 old=0.73046875 new=0.365234375 reasons=local_spike
node_id=5721 old=0.17578125 new=0.4013671875 reasons=local_dip
node_id=5726 old=0.00390625 new=0.392578125 reasons=local_dip
node_id=5744 old=0.03515625 new=0.61328125 reasons=local_dip
node_id=5745 old=0.61328125 new=0.701171875 reasons=local_spike
node_id=5746 old=0.17578125 new=0.7451171875 reasons=local_dip
node_id=5751 old=0.3203125 new=0.17578125 reasons=local_spike
node_id=5752 old=0.00390625 new=0.17578125 reasons=local_dip
node_id=5754 old=0.00390625 new=0.17578125 reasons=local_dip
node_id=5776 old=0.5546875 new=0.232421875 reasons=local_spike
node_id=5777 old=0.0078125 new=0.2470703125 reasons=local_dip
node_id=5791 old=0.00390625 new=0.466796875 reasons=local_dip
node_id=5803 old=0.0078125 new=0.322265625 reasons=local_dip
node_id=5804 old=0.5234375 new=0.3076171875 reasons=local_spike
node_id=5809 old=0.671875 new=0.408203125 reasons=local_spike
node_id=5811 old=0.0390625 new=0.349609375 reasons=local_dip
node_id=5824 old=0.01171875 new=0.26171875 reasons=local_dip
node_id=5830 old=0.015625 new=0.466796875 reasons=local_dip
node_id=5834 old=0.58203125 new=0.39453125 reasons=local_spike
node_id=5835 old=0.00390625 new=0.40234375 reasons=local_dip
node_id=5836 old=0.7578125 new=0.40625 reasons=local_spike
node_id=5840 old=0.00390625 new=0.21875 reasons=local_dip
node_id=5841 old=0.26171875 new=0.197265625 reasons=local_spike
node_id=5855 old=0.0390625 new=0.3359375 reasons=local_dip
node_id=5862 old=0.0078125 new=0.37890625 reasons=local_dip
node_id=5869 old=0.00390625 new=0.466796875 reasons=local_dip
node_id=5873 old=1.515625 new=0.451171875 reasons=local_spike
node_id=5874 old=0.03515625 new=0.4580078125 reasons=local_dip
node_id=5878 old=0.49609375 new=0.3203125 reasons=local_spike
node_id=5879 old=0.01171875 new=0.3203125 reasons=local_dip
node_id=5881 old=0.5234375 new=0.37890625 reasons=local_spike
node_id=5882 old=0.00390625 new=0.408203125 reasons=local_dip
node_id=5886 old=0.01171875 new=0.314453125 reasons=local_dip
node_id=5887 old=0.5234375 new=0.3330078125 reasons=local_spike
node_id=5896 old=0.015625 new=0.240234375 reasons=local_dip
node_id=5906 old=0.00390625 new=0.48046875 reasons=local_dip
node_id=5914 old=0.00390625 new=0.5546875 reasons=local_dip
node_id=5922 old=0.5234375 new=0.3515625 reasons=local_spike
node_id=5928 old=0.04296875 new=0.5234375 reasons=local_dip
node_id=5937 old=0.5234375 new=0.36328125 reasons=local_spike
node_id=5938 old=0.0078125 new=0.4140625 reasons=local_dip
node_id=5939 old=0.90234375 new=0.439453125 reasons=local_spike
node_id=5969 old=0.29296875 new=0.3515625 reasons=local_spike
node_id=5970 old=0.0078125 new=0.2490234375 reasons=local_dip
node_id=5976 old=0.01953125 new=0.3662109375 reasons=local_dip
node_id=5979 old=0.203125 new=0.48046875 reasons=local_dip
node_id=5980 old=0.73046875 new=0.458984375 reasons=local_spike
node_id=5981 old=0.203125 new=0.4482421875 reasons=local_dip
node_id=5986 old=0.671875 new=0.4375 reasons=local_spike
node_id=5987 old=0.05078125 new=0.48046875 reasons=local_dip
node_id=5998 old=0.0078125 new=0.4375 reasons=local_dip
node_id=6005 old=0.17578125 new=0.5546875 reasons=local_dip
node_id=6013 old=0.01171875 new=0.5390625 reasons=local_dip
node_id=6038 old=0.015625 new=0.306640625 reasons=local_dip
node_id=6039 old=0.5234375 new=0.2548828125 reasons=local_spike
node_id=6055 old=0.61328125 new=0.494140625 reasons=local_spike
node_id=6056 old=0.0078125 new=0.306640625 reasons=local_dip
node_id=6079 old=0.01953125 new=0.423828125 reasons=local_dip
node_id=6080 old=0.01171875 new=0.2626953125 reasons=local_dip
node_id=6086 old=0.0234375 new=0.5244140625 reasons=local_dip
node_id=6089 old=0.00390625 new=0.3798828125 reasons=local_dip
node_id=6090 old=0.5234375 new=0.33642578125 reasons=local_spike
node_id=6095 old=0.00390625 new=0.4521484375 reasons=local_dip
node_id=6118 old=0.00390625 new=0.3359375 reasons=local_dip
node_id=6144 old=0.3515625 new=0.263671875 reasons=local_spike
node_id=6145 old=0.01171875 new=0.2783203125 reasons=local_dip
node_id=6146 old=0.5234375 new=0.28564453125 reasons=local_spike
node_id=6191 old=0.00390625 new=0.26171875 reasons=local_dip
node_id=6213 old=0.0078125 new=0.21875 reasons=local_dip
node_id=6214 old=0.49609375 new=0.240234375 reasons=local_spike
node_id=6277 old=0.01171875 new=0.349609375 reasons=local_dip
node_id=6297 old=0.00390625 new=0.48046875 reasons=local_dip
node_id=6313 old=0.5546875 new=0.421875 reasons=local_spike
node_id=6314 old=0.01953125 new=0.47265625 reasons=local_dip
node_id=6347 old=0.5234375 new=0.17578125 reasons=local_spike
node_id=6348 old=0.015625 new=0.509765625 reasons=local_dip
node_id=6356 old=0.01171875 new=0.466796875 reasons=local_dip
node_id=6368 old=0.0078125 new=0.306640625 reasons=local_dip
node_id=6377 old=0.17578125 new=0.27734375 reasons=local_dip
node_id=6378 old=0.69921875 new=0.240234375 reasons=local_spike
node_id=6381 old=0.69921875 new=0.205078125 reasons=local_spike
node_id=6394 old=0.01171875 new=0.421875 reasons=local_dip
node_id=6395 old=0.5546875 new=0.37109375 reasons=local_spike
node_id=6412 old=0.45703125 new=0.27490234375 reasons=local_dip
node_id=6439 old=0.875 new=0.322265625 reasons=local_spike
node_id=6440 old=0.00390625 new=0.3369140625 reasons=local_dip
node_id=6441 old=0.5234375 new=0.34423828125 reasons=local_spike
node_id=6453 old=0.05078125 new=0.37890625 reasons=local_dip
node_id=6458 old=0.0078125 new=0.4375 reasons=local_dip
node_id=6461 old=0.01171875 new=0.39453125 reasons=local_dip
node_id=6469 old=0.00390625 new=0.392578125 reasons=local_dip
node_id=6470 old=0.5234375 new=0.3271484375 reasons=local_spike
node_id=6481 old=0.05078125 new=0.37890625 reasons=local_dip
node_id=6482 old=0.5234375 new=0.3359375 reasons=local_spike
node_id=6495 old=0.23046875 new=0.29052734375 reasons=local_dip
node_id=6508 old=0.0078125 new=0.3515625 reasons=local_dip
node_id=6517 old=0.0078125 new=0.380859375 reasons=local_dip
node_id=6523 old=0.00390625 new=0.3583984375 reasons=local_dip
node_id=6524 old=0.5234375 new=0.36181640625 reasons=local_spike
node_id=6525 old=0.00390625 new=0.568359375 reasons=local_dip
node_id=6540 old=0.234375 new=0.9921875 reasons=local_dip
node_id=6659 old=0.015625 new=0.59765625 reasons=local_dip
node_id=6696 old=0.078125 new=0.81640625 reasons=local_dip
node_id=6697 old=0.7890625 new=0.5390625 reasons=local_spike
node_id=6713 old=0.58203125 new=0.3515625 reasons=local_spike
node_id=6714 old=0.00390625 new=0.3515625 reasons=local_dip
node_id=6734 old=0.203125 new=0.568359375 reasons=local_dip
node_id=6735 old=0.73046875 new=0.6044921875 reasons=local_spike
node_id=6736 old=0.0625 new=0.62255859375 reasons=local_dip
node_id=6742 old=0.73046875 new=0.248046875 reasons=local_spike
node_id=6763 old=0.01171875 new=0.451171875 reasons=local_dip
node_id=6781 old=0.17578125 new=0.5234375 reasons=local_dip
node_id=6785 old=1.37109375 new=0.482421875 reasons=local_spike
node_id=6791 old=0.01171875 new=0.3515625 reasons=local_dip
node_id=6849 old=0.29296875 new=0.39453125 reasons=local_dip
node_id=6850 old=1.3984375 new=0.416015625 reasons=local_spike
node_id=6851 old=0.078125 new=0.4267578125 reasons=local_dip
node_id=6859 old=0.00390625 new=0.728515625 reasons=local_dip
node_id=6924 old=0.0625 new=0.421875 reasons=local_dip
node_id=6925 old=1.01953125 new=0.443359375 reasons=local_spike
node_id=6985 old=0.49609375 new=0.291015625 reasons=local_spike
node_id=6986 old=0.0078125 new=0.3349609375 reasons=local_dip
node_id=6987 old=0.640625 new=0.35693359375 reasons=local_spike
node_id=7050 old=0.640625 new=0.482421875 reasons=local_spike
node_id=7051 old=0.03125 new=0.5478515625 reasons=local_dip
node_id=7087 old=0.00390625 new=0.392578125 reasons=local_dip
node_id=7089 old=0.69921875 new=0.21875 reasons=local_spike
node_id=7137 old=0.26171875 new=0.875 reasons=local_dip
node_id=7140 old=0.0859375 new=0.787109375 reasons=local_dip
node_id=7158 old=0.0546875 new=0.525390625 reasons=local_dip
node_id=7188 old=0.17578125 new=0.5546875 reasons=local_dip
node_id=7214 old=0.015625 new=0.3359375 reasons=local_dip
node_id=7218 old=0.17578125 new=0.509765625 reasons=local_dip
node_id=7221 old=0.17578125 new=0.5390625 reasons=local_dip
node_id=7229 old=0.203125 new=0.423828125 reasons=local_dip
node_id=7230 old=0.73046875 new=0.3291015625 reasons=local_spike
node_id=7267 old=0.00390625 new=0.408203125 reasons=local_dip
node_id=7317 old=0.41015625 new=0.234375 reasons=local_spike
node_id=7318 old=0.00390625 new=0.263671875 reasons=local_dip
node_id=7371 old=0.01171875 new=0.451171875 reasons=local_dip
node_id=7392 old=0.17578125 new=0.51171875 reasons=local_dip
node_id=7411 old=0.0078125 new=0.380859375 reasons=local_dip
node_id=7427 old=0.17578125 new=0.5546875 reasons=local_dip
node_id=7445 old=0.0078125 new=0.380859375 reasons=local_dip
node_id=7485 old=0.0078125 new=0.5390625 reasons=local_dip
node_id=7548 old=0.7890625 new=0.466796875 reasons=local_spike
node_id=7549 old=0.0078125 new=0.4228515625 reasons=local_dip
node_id=7563 old=0.00390625 new=0.27734375 reasons=local_dip
node_id=7564 old=0.58203125 new=0.2265625 reasons=local_spike
node_id=7569 old=0.41015625 new=0.3515625 reasons=local_spike
node_id=7570 old=0.04296875 new=0.44775390625 reasons=local_dip
node_id=7600 old=0.4375 new=0.27734375 reasons=local_spike
node_id=7601 old=0.00390625 new=0.28515625 reasons=local_dip
node_id=7625 old=0.4375 new=0.349609375 reasons=local_spike
node_id=7626 old=0.015625 new=0.4072265625 reasons=local_dip
node_id=7650 old=0.00390625 new=0.29296875 reasons=local_dip
node_id=7651 old=0.5234375 new=0.263671875 reasons=local_spike
node_id=7676 old=0.0078125 new=0.408203125 reasons=local_dip
node_id=7680 old=0.61328125 new=0.3935546875 reasons=local_spike
node_id=7681 old=0.01953125 new=0.37548828125 reasons=local_dip
node_id=7697 old=0.0078125 new=0.21875 reasons=local_dip
node_id=7712 old=0.29296875 new=0.189453125 reasons=local_spike
node_id=7713 old=0.01171875 new=0.1962890625 reasons=local_dip
node_id=7714 old=0.41015625 new=0.19970703125 reasons=local_spike
node_id=7719 old=0.49609375 new=0.349609375 reasons=local_spike
node_id=7720 old=0.02734375 new=0.3935546875 reasons=local_dip
node_id=7722 old=0.46484375 new=0.39453125 reasons=local_spike
node_id=7723 old=0.01171875 new=0.31005859375 reasons=local_dip
node_id=7726 old=0.01171875 new=0.35498046875 reasons=local_dip
node_id=7741 old=0.00390625 new=0.365234375 reasons=local_dip
node_id=7757 old=0.5234375 new=0.263671875 reasons=local_spike
node_id=7758 old=0.0078125 new=0.2490234375 reasons=local_dip
node_id=7759 old=0.3515625 new=0.24169921875 reasons=local_spike
node_id=7766 old=0.5234375 new=0.421875 reasons=local_spike
node_id=7767 old=0.0078125 new=0.47265625 reasons=local_dip
node_id=7781 old=0.00390625 new=0.306640625 reasons=local_dip
node_id=7792 old=0.49609375 new=0.189453125 reasons=local_spike
node_id=7793 old=0.17578125 new=0.1962890625 reasons=local_dip
node_id=7794 old=0.61328125 new=0.19970703125 reasons=local_spike
node_id=7796 old=0.5234375 new=0.248046875 reasons=local_spike
node_id=7797 old=0.00390625 new=0.2705078125 reasons=local_dip
node_id=7841 old=0.41015625 new=0.27734375 reasons=local_spike
node_id=7842 old=0.00390625 new=0.314453125 reasons=local_dip
node_id=7848 old=0.17578125 new=0.685546875 reasons=local_dip
node_id=7853 old=0.49609375 new=0.36328125 reasons=local_spike
node_id=7854 old=0.0078125 new=0.4140625 reasons=local_dip
node_id=7869 old=0.17578125 new=0.408203125 reasons=local_dip
node_id=7870 old=0.7890625 new=0.3935546875 reasons=local_spike
node_id=7888 old=0.7578125 new=0.408203125 reasons=local_spike
node_id=7889 old=0.01171875 new=0.3505859375 reasons=local_dip
node_id=7890 old=0.4375 new=0.32177734375 reasons=local_spike
node_id=7910 old=0.46484375 new=0.392578125 reasons=local_spike
node_id=7911 old=0.0078125 new=0.4580078125 reasons=local_dip
node_id=7941 old=0.0078125 new=0.365234375 reasons=local_dip
node_id=7944 old=0.00390625 new=0.51171875 reasons=local_dip
node_id=7945 old=18.2578125 new=0.4609375 reasons=above_type_max,local_spike
node_id=7946 old=0.203125 new=0.435546875 reasons=local_dip
node_id=7952 old=0.46484375 new=0.248046875 reasons=local_spike
node_id=7953 old=0.0078125 new=0.2119140625 reasons=local_dip
node_id=7954 old=0.3203125 new=0.19384765625 reasons=local_spike
node_id=7963 old=0.00390625 new=0.47265625 reasons=local_dip
node_id=7968 old=0.00390625 new=0.341796875 reasons=local_dip
node_id=7969 old=0.41015625 new=0.3017578125 reasons=local_spike
node_id=7978 old=0.00390625 new=0.37890625 reasons=local_dip
node_id=7983 old=0.5234375 new=0.263671875 reasons=local_spike
node_id=7984 old=0.00390625 new=0.2197265625 reasons=local_dip
node_id=8000 old=0.00390625 new=0.525390625 reasons=local_dip
node_id=8009 old=0.03515625 new=0.5546875 reasons=local_dip
node_id=8042 old=0.17578125 new=0.568359375 reasons=local_dip
node_id=8049 old=1.33984375 new=0.408203125 reasons=local_spike
node_id=8058 old=0.58203125 new=0.234375 reasons=local_spike
node_id=8059 old=0.17578125 new=0.234375 reasons=local_dip
node_id=8060 old=0.00390625 new=0.26171875 reasons=local_dip
node_id=8061 old=0.3515625 new=0.26171875 reasons=local_spike
node_id=8062 old=0.0078125 new=0.306640625 reasons=local_dip
node_id=8065 old=0.0078125 new=0.3349609375 reasons=local_dip
node_id=8066 old=0.61328125 new=0.29833984375 reasons=local_spike
node_id=8069 old=0.01171875 new=0.3642578125 reasons=local_dip
node_id=8077 old=0.0078125 new=0.27734375 reasons=local_dip
node_id=8078 old=0.3203125 new=0.2265625 reasons=local_spike
node_id=8103 old=0.01171875 new=0.3515625 reasons=local_dip
node_id=8114 old=0.00390625 new=0.37890625 reasons=local_dip
node_id=8126 old=0.671875 new=0.234375 reasons=local_spike
node_id=8135 old=0.01171875 new=0.39453125 reasons=local_dip
node_id=8138 old=0.00390625 new=0.41015625 reasons=local_dip
node_id=8139 old=0.58203125 new=0.41015625 reasons=local_spike
node_id=8148 old=0.00390625 new=0.4375 reasons=local_dip
node_id=8149 old=0.5546875 new=0.39453125 reasons=local_spike
node_id=8156 old=0.0078125 new=0.5390625 reasons=local_dip
node_id=8165 old=0.5546875 new=0.365234375 reasons=local_spike
node_id=8166 old=0.00390625 new=0.4013671875 reasons=local_dip
node_id=8172 old=0.5546875 new=0.322265625 reasons=local_spike
node_id=8173 old=0.00390625 new=0.365234375 reasons=local_dip
node_id=8187 old=0.00390625 new=0.349609375 reasons=local_dip
node_id=8202 old=0.05859375 new=0.3359375 reasons=local_dip
node_id=8229 old=0.49609375 new=0.3203125 reasons=local_spike
node_id=8230 old=0.0546875 new=0.392578125 reasons=local_dip
node_id=8242 old=0.0078125 new=0.451171875 reasons=local_dip
node_id=8246 old=0.234375 new=0.759765625 reasons=local_dip
node_id=8252 old=0.17578125 new=0.541015625 reasons=local_dip
node_id=8304 old=0.5546875 new=0.263671875 reasons=local_spike
node_id=8305 old=0.0078125 new=0.2197265625 reasons=local_dip
node_id=8309 old=0.00390625 new=0.4375 reasons=local_dip
node_id=8329 old=0.01953125 new=0.49267578125 reasons=local_dip
node_id=8346 old=0.00390625 new=0.423828125 reasons=local_dip
node_id=8359 old=0.58203125 new=0.28515625 reasons=local_spike
node_id=8360 old=0.03125 new=0.44775390625 reasons=local_dip
node_id=8385 old=0.00390625 new=0.306640625 reasons=local_dip
node_id=8386 old=0.5546875 new=0.2841796875 reasons=local_spike
node_id=8406 old=0.49609375 new=0.416015625 reasons=local_spike
node_id=8407 old=0.00390625 new=0.306640625 reasons=local_dip
node_id=8430 old=0.203125 new=0.525390625 reasons=local_dip
node_id=8431 old=0.875 new=0.5693359375 reasons=local_spike
node_id=8432 old=0.06640625 new=0.59130859375 reasons=local_dip
node_id=8442 old=0.0078125 new=0.29296875 reasons=local_dip
node_id=8459 old=0.00390625 new=0.466796875 reasons=local_dip
node_id=8473 old=0.0078125 new=0.291015625 reasons=local_dip
node_id=8490 old=0.5546875 new=0.27734375 reasons=local_spike
node_id=8491 old=0.0078125 new=0.2265625 reasons=local_dip
node_id=8492 old=0.58203125 new=0.201171875 reasons=local_spike
node_id=8500 old=0.00390625 new=0.27734375 reasons=local_dip
node_id=8501 old=0.671875 new=0.28515625 reasons=local_spike
node_id=8524 old=0.11328125 new=0.787109375 reasons=local_dip
node_id=8525 old=0.17578125 new=0.8447265625 reasons=local_dip
node_id=8540 old=0.00390625 new=0.408203125 reasons=local_dip
node_id=8546 old=0.203125 new=0.61328125 reasons=local_dip
node_id=8554 old=0.5234375 new=0.232421875 reasons=local_dip
node_id=8555 old=7.02734375 new=0.2177734375 reasons=above_type_max,local_spike
node_id=8556 old=0.234375 new=0.21044921875 reasons=local_dip
node_id=8557 old=0.69921875 new=0.206787109375 reasons=local_spike
node_id=8561 old=0.00390625 new=0.380859375 reasons=local_dip
node_id=8562 old=0.58203125 new=0.3955078125 reasons=local_spike
node_id=8565 old=0.0625 new=0.263671875 reasons=local_dip
node_id=8566 old=0.37890625 new=0.2197265625 reasons=local_spike
node_id=8585 old=0.17578125 new=0.509765625 reasons=local_dip
node_id=8590 old=0.3515625 new=0.248046875 reasons=local_spike
node_id=8591 old=0.0078125 new=0.2705078125 reasons=local_dip
node_id=8612 old=0.0078125 new=0.3203125 reasons=local_dip
node_id=8613 old=0.49609375 new=0.3203125 reasons=local_spike
node_id=8625 old=0.01171875 new=0.58203125 reasons=local_dip
node_id=8644 old=0.0078125 new=0.525390625 reasons=local_dip
node_id=8664 old=0.0078125 new=0.37890625 reasons=local_dip
node_id=8678 old=0.61328125 new=0.21875 reasons=local_spike
node_id=8720 old=0.00390625 new=0.408203125 reasons=local_dip
node_id=8766 old=0.4375 new=0.27734375 reasons=local_spike
node_id=8767 old=0.00390625 new=0.26953125 reasons=local_dip
node_id=8768 old=0.640625 new=0.265625 reasons=local_spike
node_id=8780 old=0.0625 new=0.509765625 reasons=local_dip
node_id=8794 old=0.01171875 new=0.408203125 reasons=local_dip
node_id=8827 old=0.0078125 new=0.451171875 reasons=local_dip
node_id=8828 old=0.41015625 new=0.3271484375 reasons=local_spike
node_id=8833 old=0.203125 new=0.59765625 reasons=local_dip
node_id=8842 old=0.69921875 new=0.49609375 reasons=local_spike
node_id=8843 old=0.17578125 new=0.583984375 reasons=local_dip
node_id=8853 old=0.00390625 new=0.611328125 reasons=local_dip
node_id=8870 old=0.4375 new=0.3203125 reasons=local_spike
node_id=8871 old=0.00390625 new=0.349609375 reasons=local_dip
node_id=8872 old=0.61328125 new=0.3642578125 reasons=local_spike
node_id=8890 old=0.00390625 new=0.3359375 reasons=local_dip
node_id=8891 old=0.4375 new=0.28515625 reasons=local_spike
node_id=8901 old=0.0078125 new=0.322265625 reasons=local_dip
node_id=8911 old=0.00390625 new=0.365234375 reasons=local_dip
node_id=8917 old=0.203125 new=0.59765625 reasons=local_dip
node_id=8921 old=0.58203125 new=0.205078125 reasons=local_spike
node_id=8956 old=0.00390625 new=0.349609375 reasons=local_dip
node_id=8967 old=0.00390625 new=0.5390625 reasons=local_dip
node_id=8975 old=0.00390625 new=0.263671875 reasons=local_dip
node_id=8977 old=0.5546875 new=0.4375 reasons=local_dip
node_id=8978 old=5.3359375 new=0.5390625 reasons=above_type_max,local_spike
node_id=8979 old=0.3515625 new=0.58984375 reasons=local_dip
node_id=8981 old=0.17578125 new=0.5390625 reasons=local_dip
node_id=8982 old=0.875 new=0.48828125 reasons=local_spike
node_id=8984 old=0.05078125 new=0.4375 reasons=local_dip
node_id=8985 old=0.37890625 new=0.4375 reasons=local_spike
node_id=8986 old=0.015625 new=0.37890625 reasons=local_dip
node_id=8987 old=0.58203125 new=0.408203125 reasons=local_spike
node_id=8988 old=0.17578125 new=0.4228515625 reasons=local_dip
node_id=8992 old=0.5546875 new=0.205078125 reasons=local_spike
node_id=8993 old=0.01171875 new=0.1904296875 reasons=local_dip
node_id=9000 old=1.33984375 new=0.421875 reasons=local_spike
node_id=9008 old=0.0078125 new=0.39453125 reasons=local_dip
node_id=9014 old=0.00390625 new=0.27734375 reasons=local_dip
node_id=9022 old=0.0078125 new=0.234375 reasons=local_dip
node_id=9029 old=0.00390625 new=0.5546875 reasons=local_dip
node_id=9039 old=0.00390625 new=0.349609375 reasons=local_dip
node_id=9047 old=0.00390625 new=0.27734375 reasons=local_dip
node_id=9058 old=0.0078125 new=0.49609375 reasons=local_dip
node_id=9062 old=0.00390625 new=0.333984375 reasons=local_dip
node_id=9067 old=0.00390625 new=0.380859375 reasons=local_dip
node_id=9075 old=0.00390625 new=0.380859375 reasons=local_dip
node_id=9085 old=0.07421875 new=0.3212890625 reasons=local_dip
node_id=9086 old=0.5234375 new=0.27783203125 reasons=local_spike
node_id=9088 old=0.0234375 new=0.3642578125 reasons=local_dip
node_id=9106 old=0.58203125 new=0.3359375 reasons=local_spike
node_id=9107 old=0.04296875 new=0.38671875 reasons=local_dip
node_id=9124 old=0.00390625 new=0.525390625 reasons=local_dip
node_id=9129 old=0.7890625 new=0.27734375 reasons=local_spike
node_id=9131 old=0.4375 new=0.3427734375 reasons=local_spike
node_id=9132 old=0.00390625 new=0.41015625 reasons=local_dip
node_id=9133 old=0.640625 new=0.41015625 reasons=local_spike
node_id=9138 old=0.0390625 new=0.583984375 reasons=local_dip
node_id=9152 old=0.00390625 new=0.4375 reasons=local_dip
node_id=9160 old=0.00390625 new=0.4794921875 reasons=local_dip
node_id=9193 old=0.01953125 new=0.248046875 reasons=local_dip
node_id=9209 old=0.17578125 new=0.5234375 reasons=local_dip
node_id=9210 old=0.00390625 new=0.4658203125 reasons=local_dip
node_id=9211 old=0.7890625 new=0.45166015625 reasons=local_spike
node_id=9225 old=0.00390625 new=0.29296875 reasons=local_dip
node_id=9261 old=0.00390625 new=0.27734375 reasons=local_dip
node_id=9274 old=0.3515625 new=0.36328125 reasons=local_spike
node_id=9275 old=0.00390625 new=0.443359375 reasons=local_dip
node_id=9283 old=0.01171875 new=0.5234375 reasons=local_dip
node_id=9284 old=1.6328125 new=0.494140625 reasons=local_spike
node_id=9292 old=0.3515625 new=0.39453125 reasons=local_dip
node_id=9293 old=16.1015625 new=0.34375 reasons=above_type_max,local_spike
node_id=9294 old=0.26171875 new=0.318359375 reasons=local_dip
node_id=9298 old=0.17578125 new=0.3203125 reasons=local_dip
node_id=9299 old=1.01953125 new=0.291015625 reasons=local_spike
node_id=9300 old=0.02734375 new=0.2763671875 reasons=local_dip
node_id=9301 old=0.46484375 new=0.26904296875 reasons=local_spike
node_id=9307 old=0.41015625 new=0.3359375 reasons=local_spike
node_id=9311 old=0.00390625 new=0.365234375 reasons=local_dip
node_id=9312 old=0.37890625 new=0.2705078125 reasons=local_spike
node_id=9317 old=0.640625 new=0.349609375 reasons=local_spike
node_id=9318 old=0.00390625 new=0.4228515625 reasons=local_dip
node_id=9341 old=0.015625 new=0.37890625 reasons=local_dip
node_id=9342 old=0.3515625 new=0.291015625 reasons=local_spike
node_id=9352 old=0.46484375 new=0.466796875 reasons=local_spike
node_id=9353 old=0.00390625 new=0.29296875 reasons=local_dip
node_id=9354 old=0.3515625 new=0.29296875 reasons=local_spike
node_id=9355 old=0.01171875 new=0.27734375 reasons=local_dip
node_id=9356 old=0.41015625 new=0.26953125 reasons=local_spike
node_id=9374 old=0.00390625 new=0.408203125 reasons=local_dip
node_id=9415 old=0.61328125 new=0.421875 reasons=local_spike
node_id=9416 old=0.00390625 new=0.53125 reasons=local_dip
node_id=9429 old=0.4375 new=0.380859375 reasons=local_spike
node_id=9430 old=0.0234375 new=0.423828125 reasons=local_dip
node_id=9439 old=0.5234375 new=0.3515625 reasons=local_spike
node_id=9455 old=0.00390625 new=0.3515625 reasons=local_dip
node_id=9456 old=0.49609375 new=0.3515625 reasons=local_spike
node_id=9457 old=0.00390625 new=0.3515625 reasons=local_dip
node_id=9458 old=0.58203125 new=0.3515625 reasons=local_spike
node_id=9461 old=0.4375 new=0.189453125 reasons=local_spike
node_id=9462 old=0.00390625 new=0.1826171875 reasons=local_dip
node_id=9467 old=0.00390625 new=0.39453125 reasons=local_dip
node_id=9468 old=0.93359375 new=0.416015625 reasons=local_spike
node_id=9473 old=0.5234375 new=0.29296875 reasons=local_spike
node_id=9474 old=0.0078125 new=0.263671875 reasons=local_dip
node_id=9475 old=0.3515625 new=0.2490234375 reasons=local_spike
node_id=9497 old=0.015625 new=0.39453125 reasons=local_dip
node_id=9498 old=0.49609375 new=0.314453125 reasons=local_spike
node_id=9507 old=0.01171875 new=0.399658203125 reasons=local_dip
node_id=9520 old=0.49609375 new=0.3720703125 reasons=local_spike
node_id=9521 old=0.03125 new=0.327392578125 reasons=local_dip
node_id=9548 old=0.015625 new=0.408203125 reasons=local_dip
node_id=9558 old=0.01953125 new=0.541015625 reasons=local_dip
node_id=9559 old=1.80859375 new=0.6357421875 reasons=local_spike
node_id=9576 old=0.01171875 new=0.408203125 reasons=local_dip
node_id=9588 old=0.00390625 new=0.494140625 reasons=local_dip
node_id=9589 old=0.671875 new=0.4794921875 reasons=local_spike
node_id=9611 old=0.015625 new=0.58203125 reasons=local_dip
node_id=9716 old=0.5234375 new=0.49609375 reasons=local_spike
node_id=9717 old=0.01953125 new=0.59765625 reasons=local_dip
node_id=9785 old=0.17578125 new=0.701171875 reasons=local_dip
node_id=9788 old=0.0078125 new=0.73046875 reasons=local_dip
node_id=9846 old=0.875 new=0.306640625 reasons=local_spike
node_id=9855 old=0.01171875 new=0.59765625 reasons=local_dip
node_id=9887 old=0.17578125 new=0.525390625 reasons=local_dip
node_id=9925 old=0.0078125 new=0.380859375 reasons=local_dip
node_id=9949 old=0.203125 new=0.642578125 reasons=local_dip
node_id=9950 old=0.9609375 new=0.5400390625 reasons=local_spike
node_id=9998 old=0.0390625 new=0.59765625 reasons=local_dip
node_id=10006 old=0.49609375 new=0.93359375 reasons=local_dip
node_id=10007 old=2.44921875 new=1.15234375 reasons=above_type_max
node_id=10011 old=1.3984375 new=0.5380859375 reasons=local_spike
node_id=10012 old=0.00390625 new=0.39453125 reasons=local_dip
node_id=10013 old=0.69921875 new=0.416015625 reasons=local_spike
node_id=10072 old=0.00390625 new=0.509765625 reasons=local_dip
node_id=10139 old=0.0625 new=0.482421875 reasons=local_dip
node_id=10149 old=0.00390625 new=0.3359375 reasons=local_dip
node_id=10150 old=0.37890625 new=0.298828125 reasons=local_spike
node_id=10196 old=0.17578125 new=0.509765625 reasons=local_dip
node_id=10201 old=0.015625 new=0.3359375 reasons=local_dip
node_id=10202 old=0.69921875 new=0.357421875 reasons=local_spike
node_id=10226 old=0.61328125 new=0.306640625 reasons=local_spike
node_id=10227 old=0.17578125 new=0.3583984375 reasons=local_dip
node_id=10245 old=0.0078125 new=0.5546875 reasons=local_dip
node_id=10268 old=0.17578125 new=0.552734375 reasons=local_dip
node_id=10310 old=0.203125 new=0.83203125 reasons=local_dip
node_id=10320 old=0.84765625 new=0.4365234375 reasons=local_spike
node_id=10321 old=0.01171875 new=0.380859375 reasons=local_dip
node_id=10327 old=0.69921875 new=0.21875 reasons=local_spike
node_id=10366 old=0.015625 new=0.306640625 reasons=local_dip
node_id=10422 old=0.03125 new=0.3203125 reasons=local_dip
node_id=10476 old=0.0078125 new=0.421875 reasons=local_dip
node_id=10477 old=0.5546875 new=0.37109375 reasons=local_spike
node_id=10538 old=0.00390625 new=0.35693359375 reasons=local_dip
node_id=10541 old=0.0078125 new=0.32763671875 reasons=local_dip
node_id=10569 old=0.00390625 new=0.39453125 reasons=local_dip
node_id=10570 old=0.640625 new=0.39453125 reasons=local_spike
node_id=10571 old=0.015625 new=0.373046875 reasons=local_dip
node_id=10576 old=0.00390625 new=0.365234375 reasons=local_dip
node_id=10581 old=0.00390625 new=0.392578125 reasons=local_dip
node_id=10607 old=0.07421875 new=0.39453125 reasons=local_dip
node_id=10618 old=0.00390625 new=0.380859375 reasons=local_dip
node_id=10619 old=0.5546875 new=0.3662109375 reasons=local_spike
node_id=10626 old=0.00390625 new=0.466796875 reasons=local_dip
node_id=10631 old=0.015625 new=0.4375 reasons=local_dip
node_id=10638 old=0.69921875 new=0.3515625 reasons=local_spike
node_id=10675 old=0.0078125 new=0.17578125 reasons=local_dip
node_id=10691 old=0.0078125 new=0.408203125 reasons=local_dip
node_id=10697 old=0.00390625 new=0.4375 reasons=local_dip
node_id=10698 old=0.4375 new=0.451171875 reasons=local_spike
node_id=10699 old=0.00390625 new=0.4580078125 reasons=local_dip
node_id=10705 old=0.01171875 new=0.568359375 reasons=local_dip
node_id=10706 old=1.48828125 new=0.6337890625 reasons=local_spike
node_id=10708 old=0.29296875 new=0.58203125 reasons=local_dip
node_id=10709 old=1.109375 new=0.5234375 reasons=local_spike
node_id=10718 old=0.0078125 new=0.365234375 reasons=local_dip
node_id=10722 old=0.015625 new=0.306640625 reasons=local_dip
node_id=10723 old=0.5234375 new=0.2548828125 reasons=local_spike
node_id=10733 old=0.0078125 new=0.29296875 reasons=local_dip
node_id=10734 old=0.4375 new=0.263671875 reasons=local_spike
node_id=10747 old=0.0078125 new=0.29296875 reasons=local_dip
node_id=10748 old=0.46484375 new=0.234375 reasons=local_spike
node_id=10750 old=0.0078125 new=0.4375 reasons=local_dip
node_id=10760 old=0.61328125 new=0.365234375 reasons=local_spike
node_id=10761 old=0.00390625 new=0.4013671875 reasons=local_dip
node_id=10769 old=0.01171875 new=0.568359375 reasons=local_dip
node_id=10781 old=0.01171875 new=0.466796875 reasons=local_dip
node_id=10783 old=0.671875 new=0.51171875 reasons=local_spike
node_id=10784 old=0.01953125 new=0.591796875 reasons=local_dip
node_id=10785 old=1.48828125 new=0.6318359375 reasons=local_spike
node_id=10791 old=0.0078125 new=0.3359375 reasons=local_dip
node_id=10815 old=0.0078125 new=0.466796875 reasons=local_dip
node_id=10846 old=0.640625 new=0.291015625 reasons=local_spike
node_id=10847 old=0.17578125 new=0.3349609375 reasons=local_dip
node_id=10855 old=0.17578125 new=0.640625 reasons=local_dip
node_id=10861 old=0.0078125 new=0.611328125 reasons=local_dip
node_id=10866 old=0.29296875 new=0.3203125 reasons=local_dip
node_id=10867 old=11.66796875 new=0.3203125 reasons=above_type_max,local_spike
node_id=10868 old=0.046875 new=0.3203125 reasons=local_dip
node_id=10886 old=0.03515625 new=0.4375 reasons=local_dip
node_id=10894 old=0.61328125 new=0.49609375 reasons=local_spike
node_id=10895 old=0.0234375 new=0.568359375 reasons=local_dip
node_id=10910 old=0.00390625 new=0.525390625 reasons=local_dip
node_id=10917 old=0.01171875 new=0.423828125 reasons=local_dip
node_id=10918 old=0.61328125 new=0.4169921875 reasons=local_spike
node_id=10921 old=0.00390625 new=0.37890625 reasons=local_dip
node_id=10922 old=0.81640625 new=0.3359375 reasons=local_spike
node_id=10929 old=0.01953125 new=0.39453125 reasons=local_dip
node_id=10933 old=0.0078125 new=0.3076171875 reasons=local_dip
node_id=10938 old=0.00390625 new=0.408203125 reasons=local_dip
node_id=10945 old=0.015625 new=0.306640625 reasons=local_dip
node_id=10947 old=0.49609375 new=0.37890625 reasons=local_spike
node_id=10948 old=0.00390625 new=0.408203125 reasons=local_dip
node_id=10949 old=0.9921875 new=0.4228515625 reasons=local_spike
node_id=10958 old=0.015625 new=0.365234375 reasons=local_dip
node_id=10974 old=1.05078125 new=0.509765625 reasons=local_dip
node_id=10975 old=19.86328125 new=0.5458984375 reasons=above_type_max,local_spike
node_id=10976 old=0.08203125 new=0.56396484375 reasons=local_dip
node_id=10986 old=0.61328125 new=0.421875 reasons=local_spike
node_id=10987 old=0.17578125 new=0.53125 reasons=local_dip
node_id=10989 old=0.00390625 new=0.3212890625 reasons=local_dip
node_id=10990 old=0.3515625 new=0.32080078125 reasons=local_spike
node_id=10991 old=0.0078125 new=0.320556640625 reasons=local_dip
node_id=10994 old=0.00390625 new=0.29296875 reasons=local_dip
node_id=10995 old=0.3515625 new=0.263671875 reasons=local_spike
node_id=11004 old=0.00390625 new=0.3515625 reasons=local_dip
node_id=11008 old=0.0078125 new=0.29296875 reasons=local_dip
node_id=11016 old=0.00390625 new=0.583984375 reasons=local_dip
node_id=11022 old=0.01171875 new=0.423828125 reasons=local_dip
node_id=11029 old=0.00390625 new=0.3359375 reasons=local_dip
node_id=11033 old=0.0078125 new=0.5546875 reasons=local_dip
node_id=11035 old=0.0078125 new=0.5546875 reasons=local_dip
node_id=11036 old=0.3515625 new=0.5546875 reasons=local_spike
node_id=11037 old=0.0859375 new=0.380859375 reasons=local_dip
node_id=11064 old=0.5234375 new=0.17578125 reasons=local_spike
node_id=11083 old=0.00390625 new=0.306640625 reasons=local_dip
node_id=11110 old=0.02734375 new=0.509765625 reasons=local_dip
node_id=11120 old=0.5234375 new=0.3076171875 reasons=local_spike
node_id=11121 old=0.02734375 new=0.322265625 reasons=local_dip
node_id=11142 old=0.0078125 new=0.234375 reasons=local_dip
node_id=11181 old=0.01171875 new=0.23046875 reasons=local_dip
node_id=11183 old=0.61328125 new=0.189453125 reasons=local_spike
node_id=11187 old=0.00390625 new=0.2734375 reasons=local_dip
node_id=11193 old=0.00390625 new=0.3837890625 reasons=local_dip
node_id=11194 old=0.671875 new=0.36767578125 reasons=local_spike
node_id=11207 old=0.01171875 new=0.3681640625 reasons=local_dip
node_id=11208 old=0.49609375 new=0.34423828125 reasons=local_spike
node_id=11214 old=0.5234375 new=0.29296875 reasons=local_spike
node_id=11215 old=0.00390625 new=0.17578125 reasons=local_dip
node_id=11219 old=0.46484375 new=0.5087890625 reasons=local_spike
node_id=11220 old=0.0078125 new=0.3359375 reasons=local_dip
node_id=11224 old=0.17578125 new=0.59765625 reasons=local_dip
node_id=11237 old=0.00390625 new=0.408203125 reasons=local_dip
node_id=11238 old=0.5234375 new=0.3212890625 reasons=local_spike
node_id=11239 old=0.17578125 new=0.27783203125 reasons=local_dip
node_id=11240 old=0.640625 new=0.256103515625 reasons=local_spike
node_id=11256 old=0.17578125 new=0.509765625 reasons=local_dip
node_id=11261 old=0.0078125 new=0.48046875 reasons=local_dip
node_id=11281 old=0.00390625 new=0.423828125 reasons=local_dip
node_id=11282 old=0.73046875 new=0.3876953125 reasons=local_spike
node_id=11312 old=0.00390625 new=0.408203125 reasons=local_dip
node_id=11317 old=0.17578125 new=0.875 reasons=local_dip
node_id=11340 old=0.00390625 new=0.4375 reasons=local_dip
node_id=11360 old=0.00390625 new=0.306640625 reasons=local_dip
node_id=11378 old=0.5234375 new=0.232421875 reasons=local_spike
node_id=11379 old=0.00390625 new=0.2177734375 reasons=local_dip
node_id=11400 old=0.00390625 new=0.3515625 reasons=local_dip
node_id=11421 old=0.0078125 new=0.3515625 reasons=local_dip
node_id=11422 old=0.58203125 new=0.3515625 reasons=local_spike
node_id=11442 old=0.00390625 new=0.380859375 reasons=local_dip
node_id=11448 old=0.17578125 new=0.509765625 reasons=local_dip
node_id=11457 old=0.69921875 new=0.21875 reasons=local_spike
node_id=11462 old=0.41015625 new=0.205078125 reasons=local_spike
node_id=11463 old=0.00390625 new=0.1904296875 reasons=local_dip
node_id=11488 old=0.00390625 new=0.4375 reasons=local_dip
node_id=11490 old=0.015625 new=0.29296875 reasons=local_dip
node_id=11501 old=0.00390625 new=0.423828125 reasons=local_dip
node_id=11562 old=0.5234375 new=0.291015625 reasons=local_spike
node_id=11563 old=0.00390625 new=0.2763671875 reasons=local_dip
node_id=11569 old=0.01171875 new=0.421875 reasons=local_dip
node_id=11594 old=0.00390625 new=0.4375 reasons=local_dip
node_id=11623 old=0.015625 new=0.3359375 reasons=local_dip
node_id=11648 old=0.00390625 new=0.51171875 reasons=local_dip
node_id=11654 old=0.00390625 new=0.3203125 reasons=local_dip
node_id=11656 old=0.9921875 new=0.349609375 reasons=local_spike
node_id=11671 old=0.5546875 new=0.37890625 reasons=local_spike
node_id=11672 old=0.00390625 new=0.451171875 reasons=local_dip
node_id=11677 old=0.37890625 new=0.3076171875 reasons=local_spike
node_id=11694 old=0.01953125 new=0.453125 reasons=local_dip
node_id=11711 old=0.01953125 new=0.306640625 reasons=local_dip
node_id=11723 old=0.0234375 new=0.423828125 reasons=local_dip
node_id=11735 old=0.0234375 new=0.453125 reasons=local_dip
node_id=11745 old=0.17578125 new=0.552734375 reasons=local_dip
node_id=11748 old=0.015625 new=0.466796875 reasons=local_dip
node_id=11749 old=0.5234375 new=0.4091796875 reasons=local_spike
node_id=11755 old=0.4375 new=0.203125 reasons=local_spike
node_id=11756 old=0.00390625 new=0.203125 reasons=local_dip
node_id=11757 old=0.61328125 new=0.203125 reasons=local_spike
node_id=11779 old=0.0078125 new=0.408203125 reasons=local_dip
node_id=11780 old=0.875 new=0.4228515625 reasons=local_spike
node_id=11791 old=0.00390625 new=0.37890625 reasons=local_dip
node_id=11792 old=0.61328125 new=0.306640625 reasons=local_spike
node_id=11793 old=0.02734375 new=0.509765625 reasons=local_dip
node_id=11800 old=0.01171875 new=0.46484375 reasons=local_dip
node_id=11826 old=0.015625 new=0.466796875 reasons=local_dip
node_id=11843 old=0.03125 new=0.408203125 reasons=local_dip
node_id=11859 old=0.73046875 new=0.263671875 reasons=local_spike
node_id=11860 old=0.02734375 new=0.2197265625 reasons=local_dip
node_id=11873 old=0.00390625 new=0.365234375 reasons=local_dip
node_id=11880 old=0.41015625 new=0.423828125 reasons=local_spike
node_id=11881 old=0.00390625 new=0.5185546875 reasons=local_dip
node_id=11882 old=0.5234375 new=0.56591796875 reasons=local_spike
node_id=11883 old=0.17578125 new=0.589599609375 reasons=local_dip
node_id=11891 old=0.00390625 new=0.380859375 reasons=local_dip
node_id=11934 old=0.0078125 new=0.466796875 reasons=local_dip
node_id=11941 old=0.0078125 new=0.41943359375 reasons=local_dip
node_id=11949 old=0.00390625 new=0.39453125 reasons=local_dip
node_id=11956 old=0.00390625 new=0.4375 reasons=local_dip
node_id=11964 old=0.01171875 new=0.306640625 reasons=local_dip
node_id=11979 old=0.0078125 new=0.39453125 reasons=local_dip
node_id=11994 old=0.00390625 new=0.26171875 reasons=local_dip
node_id=12007 old=0.46484375 new=0.27734375 reasons=local_spike
node_id=12008 old=0.00390625 new=0.314453125 reasons=local_dip
node_id=12024 old=0.015625 new=0.306640625 reasons=local_dip
node_id=12025 old=0.41015625 new=0.2705078125 reasons=local_spike
node_id=12033 old=0.0078125 new=0.3359375 reasons=local_dip
node_id=12041 old=0.5234375 new=0.37890625 reasons=local_spike
node_id=12042 old=0.00390625 new=0.34716796875 reasons=local_dip
node_id=12061 old=0.17578125 new=0.466796875 reasons=local_dip
node_id=12062 old=0.671875 new=0.4091796875 reasons=local_spike
node_id=12063 old=0.0234375 new=0.38037109375 reasons=local_dip
node_id=12075 old=0.00390625 new=0.29296875 reasons=local_dip
node_id=12090 old=0.01171875 new=0.466796875 reasons=local_dip
node_id=12091 old=0.58203125 new=0.3935546875 reasons=local_spike
node_id=12093 old=1.05078125 new=0.365234375 reasons=local_spike
node_id=12101 old=0.90234375 new=0.4375 reasons=local_spike
node_id=12102 old=0.234375 new=0.48046875 reasons=local_dip
node_id=12137 old=0.0078125 new=0.482421875 reasons=local_dip
node_id=12152 old=0.73046875 new=0.421875 reasons=local_spike
node_id=12153 old=0.0078125 new=0.400390625 reasons=local_dip
node_id=12154 old=0.5546875 new=0.3896484375 reasons=local_spike
node_id=12159 old=0.00390625 new=0.509765625 reasons=local_dip
node_id=12162 old=0.00390625 new=0.3359375 reasons=local_dip
node_id=12163 old=0.3203125 new=0.255859375 reasons=local_spike
node_id=12165 old=0.3515625 new=0.3203125 reasons=local_spike
node_id=12166 old=0.00390625 new=0.392578125 reasons=local_dip
node_id=12172 old=0.01171875 new=0.39453125 reasons=local_dip
node_id=12178 old=0.58203125 new=0.408203125 reasons=local_spike
node_id=12186 old=0.00390625 new=0.365234375 reasons=local_dip
node_id=12201 old=0.0078125 new=0.29296875 reasons=local_dip
node_id=12214 old=0.015625 new=0.5546875 reasons=local_dip
node_id=12226 old=0.00390625 new=0.3359375 reasons=local_dip
node_id=12239 old=0.00390625 new=0.453125 reasons=local_dip
node_id=12256 old=0.00390625 new=0.49609375 reasons=local_dip
node_id=12272 old=0.17578125 new=0.509765625 reasons=local_dip
node_id=12273 old=0.69921875 new=0.5322265625 reasons=local_spike
node_id=12274 old=0.00390625 new=0.54345703125 reasons=local_dip
node_id=12290 old=0.671875 new=0.423828125 reasons=local_spike
node_id=12291 old=0.0390625 new=0.4306640625 reasons=local_dip
node_id=12327 old=0.00390625 new=0.380859375 reasons=local_dip
node_id=12344 old=0.5234375 new=0.380859375 reasons=local_spike
node_id=12345 old=0.00390625 new=0.3955078125 reasons=local_dip
node_id=12362 old=0.4375 new=0.322265625 reasons=local_spike
node_id=12363 old=0.00390625 new=0.3662109375 reasons=local_dip
node_id=12376 old=0.01171875 new=0.3359375 reasons=local_dip
node_id=12385 old=0.46484375 new=0.29296875 reasons=local_spike
node_id=12386 old=0.00390625 new=0.3515625 reasons=local_dip
node_id=12418 old=0.0078125 new=0.232421875 reasons=local_dip
node_id=12432 old=0.0078125 new=0.48046875 reasons=local_dip
node_id=12441 old=0.5234375 new=0.3515625 reasons=local_spike
node_id=12442 old=0.01953125 new=0.3515625 reasons=local_dip
node_id=12450 old=0.01953125 new=0.494140625 reasons=local_dip
node_id=12484 old=0.00390625 new=0.3515625 reasons=local_dip
node_id=12485 old=0.5234375 new=0.322265625 reasons=local_spike
node_id=12501 old=0.05078125 new=0.39453125 reasons=local_dip
node_id=12510 old=0.17578125 new=0.380859375 reasons=local_dip
node_id=12511 old=13.53515625 new=0.3662109375 reasons=above_type_max,local_spike
node_id=12512 old=0.640625 new=0.35888671875 reasons=local_dip
node_id=12514 old=0.01171875 new=0.3515625 reasons=local_dip
node_id=12515 old=0.5234375 new=0.3515625 reasons=local_spike
node_id=12528 old=0.00390625 new=0.5546875 reasons=local_dip
node_id=12541 old=0.07421875 new=0.306640625 reasons=local_dip
node_id=12542 old=0.4375 new=0.2412109375 reasons=local_spike
node_id=12547 old=0.01953125 new=0.39453125 reasons=local_dip
node_id=12553 old=0.0078125 new=0.39453125 reasons=local_dip
node_id=12572 old=0.41015625 new=0.248046875 reasons=local_spike
node_id=12573 old=0.03515625 new=0.2548828125 reasons=local_dip
node_id=12593 old=0.69921875 new=0.263671875 reasons=local_spike
node_id=12594 old=0.01171875 new=0.2197265625 reasons=local_dip
node_id=12595 old=0.5546875 new=0.19775390625 reasons=local_spike
node_id=12601 old=0.58203125 new=0.349609375 reasons=local_spike
node_id=12602 old=0.17578125 new=0.4365234375 reasons=local_dip
node_id=12611 old=0.671875 new=0.291015625 reasons=local_spike
node_id=12612 old=0.00390625 new=0.3056640625 reasons=local_dip
node_id=12638 old=0.01171875 new=0.51171875 reasons=local_dip
node_id=12639 old=0.5546875 new=0.431640625 reasons=local_spike
node_id=12641 old=0.01953125 new=0.3515625 reasons=local_dip
node_id=12660 old=0.00390625 new=0.380859375 reasons=local_dip
node_id=12671 old=0.05078125 new=0.27734375 reasons=local_dip
node_id=12672 old=0.4375 new=0.255859375 reasons=local_spike
node_id=12693 old=0.04296875 new=0.466796875 reasons=local_dip
node_id=12716 old=0.00390625 new=0.423828125 reasons=local_dip
node_id=12727 old=0.00390625 new=0.568359375 reasons=local_dip
node_id=12728 old=0.73046875 new=0.4443359375 reasons=local_spike
node_id=12739 old=0.00390625 new=0.365234375 reasons=local_dip
node_id=12751 old=0.0078125 new=0.4375 reasons=local_dip
node_id=12752 old=0.46484375 new=0.4375 reasons=local_spike
node_id=12753 old=0.00390625 new=0.34375 reasons=local_dip
node_id=12761 old=0.0078125 new=0.27734375 reasons=local_dip
node_id=12762 old=0.4375 new=0.2265625 reasons=local_spike
node_id=12765 old=0.3515625 new=0.365234375 reasons=local_dip
node_id=12766 old=2.5390625 new=0.3291015625 reasons=above_type_max,local_spike
node_id=12767 old=0.41015625 new=0.31103515625 reasons=local_dip
node_id=12770 old=0.0234375 new=0.28515625 reasons=local_dip
node_id=12779 old=0.00390625 new=0.421875 reasons=local_dip
node_id=12793 old=0.00390625 new=0.5537109375 reasons=local_dip
node_id=12807 old=0.00390625 new=0.3935546875 reasons=local_dip
node_id=12808 old=0.5546875 new=0.35693359375 reasons=local_spike
node_id=12827 old=0.90234375 new=0.392578125 reasons=local_spike
node_id=12828 old=0.0078125 new=0.3271484375 reasons=local_dip
node_id=12832 old=0.00390625 new=0.291015625 reasons=local_dip
node_id=12839 old=0.5234375 new=0.306640625 reasons=local_spike
node_id=12840 old=0.01171875 new=0.59765625 reasons=local_dip
node_id=12856 old=0.0078125 new=0.4375 reasons=local_dip
node_id=12879 old=0.7890625 new=0.248046875 reasons=local_spike
node_id=12901 old=0.17578125 new=0.509765625 reasons=local_dip
node_id=12909 old=0.3515625 new=0.49609375 reasons=local_dip
node_id=12910 old=1.6328125 new=0.525390625 reasons=local_spike
node_id=12932 old=0.875 new=0.291015625 reasons=local_spike
node_id=12934 old=0.00390625 new=0.232421875 reasons=local_dip
node_id=12935 old=0.3203125 new=0.2177734375 reasons=local_spike
node_id=12962 old=0.00390625 new=0.3662109375 reasons=local_dip
node_id=12966 old=0.00390625 new=0.2783203125 reasons=local_dip
node_id=12967 old=0.4375 new=0.22705078125 reasons=local_spike
node_id=12990 old=1.05078125 new=0.3359375 reasons=local_spike
node_id=12998 old=0.03125 new=0.3515625 reasons=local_dip
node_id=13002 old=0.01171875 new=0.3515625 reasons=local_dip
node_id=13015 old=0.00390625 new=0.466796875 reasons=local_dip
node_id=13019 old=0.58203125 new=0.322265625 reasons=local_spike
node_id=13020 old=0.00390625 new=0.36181640625 reasons=local_dip
node_id=13030 old=0.69921875 new=0.51171875 reasons=local_spike
node_id=13031 old=0.00390625 new=0.591796875 reasons=local_dip
node_id=13035 old=0.0078125 new=0.634765625 reasons=local_dip
node_id=13036 old=0.5234375 new=0.5869140625 reasons=local_spike
node_id=13037 old=0.04296875 new=0.43408203125 reasons=local_dip
node_id=13048 old=0.00390625 new=0.21875 reasons=local_dip
node_id=13055 old=0.7578125 new=0.26171875 reasons=local_spike
node_id=13056 old=0.02734375 new=0.26171875 reasons=local_dip
node_id=13068 old=0.00390625 new=0.37890625 reasons=local_dip
node_id=13077 old=0.5234375 new=0.408203125 reasons=local_spike
node_id=13078 old=0.01171875 new=0.4658203125 reasons=local_dip
node_id=13087 old=0.4375 new=0.26171875 reasons=local_spike
node_id=13088 old=0.0078125 new=0.26171875 reasons=local_dip
node_id=13103 old=0.078125 new=0.56005859375 reasons=local_dip
node_id=13111 old=0.234375 new=0.728515625 reasons=local_dip
node_id=13144 old=0.00390625 new=0.482421875 reasons=local_dip
node_id=13145 old=0.61328125 new=0.3583984375 reasons=local_spike
node_id=13198 old=0.01953125 new=0.380859375 reasons=local_dip
node_id=13251 old=0.84765625 new=0.27734375 reasons=local_spike
node_id=13252 old=0.17578125 new=0.2265625 reasons=local_dip
node_id=13258 old=0.0078125 new=0.291015625 reasons=local_dip
node_id=13259 old=0.5234375 new=0.3056640625 reasons=local_spike
node_id=13341 old=0.84765625 new=0.408203125 reasons=local_spike
node_id=13342 old=0.046875 new=0.4521484375 reasons=local_dip
node_id=13361 old=0.234375 new=0.671875 reasons=local_dip
node_id=13389 old=0.00390625 new=0.39453125 reasons=local_dip
node_id=13432 old=0.03125 new=0.509765625 reasons=local_dip
node_id=13481 old=0.0390625 new=0.61328125 reasons=local_dip
node_id=13518 old=0.203125 new=0.58203125 reasons=local_dip
node_id=13527 old=0.06640625 new=0.5703125 reasons=local_dip
node_id=13528 old=0.61328125 new=0.4609375 reasons=local_spike
node_id=13571 old=0.46484375 new=0.3359375 reasons=local_spike
node_id=13572 old=0.00390625 new=0.38671875 reasons=local_dip
node_id=13619 old=0.0703125 new=1.15234375 reasons=local_dip
node_id=13666 old=0.37890625 new=0.3203125 reasons=local_spike
node_id=13667 old=0.00390625 new=0.37890625 reasons=local_dip
node_id=13676 old=0.203125 new=0.669921875 reasons=local_dip
node_id=13721 old=0.01953125 new=0.466796875 reasons=local_dip
node_id=13744 old=0.17578125 new=0.509765625 reasons=local_dip
node_id=13771 old=0.01953125 new=0.494140625 reasons=local_dip
node_id=13823 old=0.00390625 new=0.48046875 reasons=local_dip
node_id=13835 old=0.17578125 new=0.5390625 reasons=local_dip
node_id=13863 old=0.078125 new=0.53076171875 reasons=local_dip
node_id=13908 old=0.90234375 new=0.27734375 reasons=local_spike
node_id=13921 old=0.00390625 new=0.37841796875 reasons=local_dip
node_id=13984 old=0.00390625 new=0.306640625 reasons=local_dip
node_id=14000 old=0.01171875 new=0.40771484375 reasons=local_dip
node_id=14083 old=0.58203125 new=0.306640625 reasons=local_spike
node_id=14084 old=0.0234375 new=0.3720703125 reasons=local_dip
node_id=14088 old=0.875 new=0.552734375 reasons=local_spike
node_id=14089 old=0.03125 new=0.5380859375 reasons=local_dip
node_id=14092 old=0.203125 new=0.626953125 reasons=local_dip
node_id=14119 old=0.203125 new=0.626953125 reasons=local_dip
node_id=14128 old=0.7890625 new=0.263671875 reasons=local_spike
[...]
node_id=34370 old=0.17578125 new=0.552734375 reasons=local_dip
node_id=34389 old=0.05078125 new=0.568359375 reasons=local_dip
node_id=34395 old=0.0078125 new=0.365234375 reasons=local_dip
node_id=34396 old=0.46484375 new=0.3291015625 reasons=local_spike
node_id=34400 old=0.00390625 new=0.3359375 reasons=local_dip
node_id=34401 old=0.5546875 new=0.34375 reasons=local_spike
node_id=34441 old=0.00390625 new=0.263671875 reasons=local_dip
node_id=34442 old=0.49609375 new=0.2490234375 reasons=local_spike
node_id=34479 old=0.26171875 new=0.875 reasons=local_dip
node_id=34488 old=0.00390625 new=0.392578125 reasons=local_dip
node_id=34499 old=0.00390625 new=0.466796875 reasons=local_dip
node_id=34507 old=0.17578125 new=0.5234375 reasons=local_dip
node_id=34518 old=0.17578125 new=0.509765625 reasons=local_dip
node_id=34525 old=0.01171875 new=0.365234375 reasons=local_dip
node_id=34540 old=0.02734375 new=0.39453125 reasons=local_dip
node_id=34553 old=0.0078125 new=0.27734375 reasons=local_dip
node_id=34562 old=0.49609375 new=0.306640625 reasons=local_spike
node_id=34563 old=0.00390625 new=0.3291015625 reasons=local_dip
node_id=34584 old=0.5234375 new=0.232421875 reasons=local_dip
node_id=34585 old=5.046875 new=0.2470703125 reasons=above_type_max,local_spike
node_id=34586 old=0.4375 new=0.25439453125 reasons=local_dip
node_id=34602 old=0.0078125 new=0.365234375 reasons=local_dip
node_id=34628 old=0.5234375 new=0.39453125 reasons=local_spike
node_id=34629 old=0.0078125 new=0.4453125 reasons=local_dip
node_id=34647 old=0.0078125 new=0.4375 reasons=local_dip
node_id=34651 old=0.03515625 new=0.4013671875 reasons=local_dip
node_id=34652 old=0.69921875 new=0.37646484375 reasons=local_spike
node_id=34667 old=0.015625 new=0.4580078125 reasons=local_dip
node_id=34691 old=0.5546875 new=0.322265625 reasons=local_spike
node_id=34692 old=0.01171875 new=0.3076171875 reasons=local_dip
node_id=34723 old=0.00390625 new=0.4375 reasons=local_dip
node_id=34724 old=0.58203125 new=0.39453125 reasons=local_spike
node_id=34728 old=0.17578125 new=0.640625 reasons=local_dip
node_id=34740 old=0.46484375 new=0.234375 reasons=local_spike
node_id=34741 old=0.0390625 new=0.234375 reasons=local_dip
node_id=34753 old=0.0078125 new=0.27734375 reasons=local_dip
node_id=34797 old=0.17578125 new=0.36328125 reasons=local_dip
node_id=34798 old=0.640625 new=0.3125 reasons=local_spike
node_id=34799 old=0.01171875 new=0.287109375 reasons=local_dip
node_id=34805 old=0.015625 new=0.423828125 reasons=local_dip
node_id=34839 old=0.07421875 new=0.466796875 reasons=local_dip
node_id=34845 old=0.17578125 new=0.5390625 reasons=local_dip
node_id=34870 old=0.01171875 new=0.482421875 reasons=local_dip
node_id=34908 old=0.0078125 new=0.640625 reasons=local_dip
node_id=34923 old=0.0078125 new=0.482421875 reasons=local_dip
node_id=34940 old=0.17578125 new=0.509765625 reasons=local_dip
node_id=34955 old=0.0078125 new=0.61328125 reasons=local_dip
node_id=34972 old=2.2734375 new=1.048828125 reasons=above_type_max
node_id=34993 old=0.0078125 new=0.49609375 reasons=local_dip
node_id=35050 old=0.69921875 new=0.3359375 reasons=local_spike
node_id=35051 old=0.0234375 new=0.328125 reasons=local_dip
node_id=35052 old=0.640625 new=0.32421875 reasons=local_spike
node_id=35072 old=0.05078125 new=0.39453125 reasons=local_dip
node_id=35073 old=0.61328125 new=0.373046875 reasons=local_spike
node_id=35120 old=0.04296875 new=0.51171875 reasons=local_dip
node_id=35121 old=0.41015625 new=0.373046875 reasons=local_spike
node_id=35164 old=0.015625 new=0.5703125 reasons=local_dip
node_id=35165 old=0.49609375 new=0.431640625 reasons=local_spike
node_id=35167 old=0.0078125 new=0.4658203125 reasons=local_dip
node_id=35168 old=0.61328125 new=0.45166015625 reasons=local_spike
node_id=35169 old=0.17578125 new=0.444580078125 reasons=local_dip
node_id=35172 old=0.0078125 new=0.408203125 reasons=local_dip
node_id=35192 old=0.00390625 new=0.4794921875 reasons=local_dip
node_id=35203 old=0.0078125 new=0.4375 reasons=local_dip
node_id=35212 old=0.0234375 new=0.4150390625 reasons=local_dip
node_id=35233 old=0.0078125 new=0.380859375 reasons=local_dip
node_id=35285 old=0.015625 new=0.392578125 reasons=local_dip
node_id=35329 old=0.58203125 new=0.205078125 reasons=local_spike
node_id=35356 old=0.0078125 new=0.234375 reasons=local_dip
node_id=35420 old=0.015625 new=0.423828125 reasons=local_dip
node_id=35431 old=0.0078125 new=0.2705078125 reasons=local_dip
node_id=35477 old=0.01953125 new=0.49609375 reasons=local_dip
node_id=35486 old=0.17578125 new=0.58203125 reasons=local_dip
node_id=35523 old=0.0078125 new=0.3359375 reasons=local_dip
node_id=35575 old=0.00390625 new=0.48046875 reasons=local_dip
node_id=35581 old=0.01171875 new=0.3203125 reasons=local_dip
node_id=35582 old=0.5546875 new=0.248046875 reasons=local_spike
node_id=35600 old=0.08203125 new=0.408203125 reasons=local_dip
node_id=35615 old=0.00390625 new=0.466796875 reasons=local_dip
node_id=35642 old=0.203125 new=0.421875 reasons=local_dip
node_id=35643 old=0.73046875 new=0.37109375 reasons=local_spike
node_id=35644 old=0.00390625 new=0.39453125 reasons=local_dip
node_id=35664 old=0.69921875 new=0.248046875 reasons=local_spike
node_id=35745 old=0.02734375 new=0.466796875 reasons=local_dip
node_id=35746 old=0.4375 new=0.3505859375 reasons=local_spike
node_id=35752 old=0.0078125 new=0.39453125 reasons=local_dip
node_id=35808 old=0.17578125 new=0.583984375 reasons=local_dip
node_id=35890 old=0.0234375 new=0.4375 reasons=local_dip
node_id=35927 old=0.0078125 new=0.322265625 reasons=local_dip
node_id=35928 old=0.49609375 new=0.3076171875 reasons=local_spike
node_id=35957 old=0.49609375 new=0.306640625 reasons=local_spike
node_id=35958 old=0.02734375 new=0.3583984375 reasons=local_dip
node_id=35984 old=0.0234375 new=0.3203125 reasons=local_dip
node_id=35985 old=0.37890625 new=0.26171875 reasons=local_spike
node_id=35991 old=0.00390625 new=0.3359375 reasons=local_dip
node_id=36010 old=0.00390625 new=0.408203125 reasons=local_dip
node_id=36047 old=0.015625 new=0.21875 reasons=local_dip
node_id=36075 old=0.69921875 new=0.234375 reasons=local_spike
node_id=36076 old=0.00390625 new=0.568359375 reasons=local_dip
node_id=36144 old=0.4375 new=0.322265625 reasons=local_spike
node_id=36145 old=0.015625 new=0.3369140625 reasons=local_dip
node_id=36191 old=0.015625 new=0.3359375 reasons=local_dip
node_id=36207 old=0.00390625 new=0.3359375 reasons=local_dip
node_id=36254 old=0.41015625 new=0.21875 reasons=local_spike
node_id=36255 old=0.0078125 new=0.2265625 reasons=local_dip
node_id=36276 old=0.00390625 new=0.421875 reasons=local_dip
node_id=36304 old=0.01953125 new=0.3515625 reasons=local_dip
node_id=36333 old=0.00390625 new=0.26171875 reasons=local_dip
node_id=36335 old=0.4375 new=0.2919921875 reasons=local_spike
node_id=36336 old=0.00390625 new=0.26171875 reasons=local_dip
node_id=36337 old=0.4375 new=0.232421875 reasons=local_spike
node_id=36391 old=0.00390625 new=0.26171875 reasons=local_dip
node_id=36476 old=0.00390625 new=0.322265625 reasons=local_dip
node_id=36495 old=0.00390625 new=0.365234375 reasons=local_dip
node_id=36496 old=0.46484375 new=0.3291015625 reasons=local_spike
node_id=36501 old=0.0078125 new=0.29248046875 reasons=local_dip
node_id=36502 old=0.5234375 new=0.234130859375 reasons=local_spike
node_id=36546 old=0.00390625 new=0.263671875 reasons=local_dip
node_id=36590 old=0.01171875 new=0.248046875 reasons=local_dip
node_id=36591 old=0.5234375 new=0.2841796875 reasons=local_spike
node_id=36628 old=0.5234375 new=0.421875 reasons=local_spike
node_id=36629 old=0.015625 new=0.38037109375 reasons=local_dip
node_id=36630 old=0.5234375 new=0.365966796875 reasons=local_spike
node_id=36674 old=0.01171875 new=0.39453125 reasons=local_dip
node_id=36675 old=0.49609375 new=0.314453125 reasons=local_spike
node_id=36699 old=0.00390625 new=0.39453125 reasons=local_dip
node_id=36713 old=0.0078125 new=0.408203125 reasons=local_dip
node_id=36732 old=0.01171875 new=0.26171875 reasons=local_dip
node_id=36763 old=0.00390625 new=0.568359375 reasons=local_dip
node_id=36776 old=0.3515625 new=0.298828125 reasons=local_spike
node_id=36806 old=0.61328125 new=0.322265625 reasons=local_spike
node_id=36807 old=0.17578125 new=0.3662109375 reasons=local_dip
node_id=36897 old=0.0078125 new=0.263671875 reasons=local_dip
node_id=36898 old=0.3515625 new=0.2197265625 reasons=local_spike
node_id=36939 old=0.00390625 new=0.482421875 reasons=local_dip
node_id=36955 old=0.46484375 new=0.248046875 reasons=local_spike
node_id=36956 old=0.00390625 new=0.2255859375 reasons=local_dip
node_id=36960 old=0.01171875 new=0.380859375 reasons=local_dip
node_id=36967 old=0.02734375 new=0.4375 reasons=local_dip
node_id=36984 old=0.17578125 new=0.552734375 reasons=local_dip
node_id=37004 old=0.17578125 new=0.5234375 reasons=local_dip
node_id=37008 old=0.7578125 new=0.232421875 reasons=local_spike
node_id=37042 old=0.49609375 new=0.17578125 reasons=local_spike
node_id=37043 old=0.00390625 new=0.5234375 reasons=local_dip
node_id=37045 old=0.3515625 new=0.5234375 reasons=local_dip
node_id=37046 old=2.859375 new=0.5234375 reasons=above_type_max,local_spike
node_id=37047 old=0.41015625 new=0.5234375 reasons=local_dip
node_id=37061 old=0.46484375 new=0.423828125 reasons=local_spike
node_id=37062 old=0.03515625 new=0.5185546875 reasons=local_dip
node_id=37075 old=0.01171875 new=0.65625 reasons=local_dip
node_id=37095 old=0.671875 new=0.29296875 reasons=local_spike
node_id=37096 old=0.0078125 new=0.234375 reasons=local_dip
node_id=37101 old=0.03515625 new=0.39453125 reasons=local_dip
node_id=37102 old=0.61328125 new=0.373046875 reasons=local_spike
node_id=37117 old=0.4375 new=0.3203125 reasons=local_spike
node_id=37118 old=0.015625 new=0.37890625 reasons=local_dip
node_id=37137 old=0.0078125 new=0.3359375 reasons=local_dip
node_id=37138 old=0.41015625 new=0.255859375 reasons=local_spike
node_id=37170 old=0.02734375 new=0.380859375 reasons=local_dip
node_id=37184 old=0.00390625 new=0.39453125 reasons=local_dip
node_id=37187 old=0.17578125 new=0.5234375 reasons=local_dip
node_id=37188 old=1.078125 new=0.5234375 reasons=local_spike
node_id=37189 old=0.3515625 new=0.5234375 reasons=local_dip
node_id=37207 old=0.0078125 new=0.263671875 reasons=local_dip
node_id=37220 old=0.203125 new=0.65625 reasons=local_dip
node_id=37262 old=0.01953125 new=0.365234375 reasons=local_dip
node_id=37281 old=0.671875 new=0.365234375 reasons=local_spike
node_id=37289 old=0.0078125 new=0.451171875 reasons=local_dip
node_id=37306 old=0.08203125 new=0.345703125 reasons=local_dip
node_id=37329 old=0.203125 new=0.611328125 reasons=local_dip
node_id=37337 old=0.49609375 new=0.4091796875 reasons=local_spike
node_id=37338 old=0.015625 new=0.2734375 reasons=local_dip
node_id=37339 old=0.49609375 new=0.224609375 reasons=local_spike
node_id=37371 old=0.01171875 new=0.27734375 reasons=local_dip
node_id=37372 old=0.4375 new=0.26953125 reasons=local_spike
node_id=37456 old=0.00390625 new=0.3203125 reasons=local_dip
node_id=37481 old=0.01171875 new=0.26171875 reasons=local_dip
node_id=37517 old=0.00390625 new=0.322265625 reasons=local_dip
node_id=37518 old=0.4375 new=0.3076171875 reasons=local_spike
node_id=37533 old=0.00390625 new=0.29296875 reasons=local_dip
node_id=37534 old=0.49609375 new=0.29296875 reasons=local_spike
node_id=37553 old=0.00390625 new=0.29248046875 reasons=local_dip
node_id=37571 old=0.01171875 new=0.32177734375 reasons=local_dip
node_id=37599 old=0.0234375 new=0.3359375 reasons=local_dip
node_id=37600 old=0.41015625 new=0.298828125 reasons=local_spike
node_id=37668 old=0.41015625 new=0.27734375 reasons=local_spike
node_id=37669 old=0.00390625 new=0.314453125 reasons=local_dip
node_id=37688 old=0.015625 new=0.29296875 reasons=local_dip
node_id=37727 old=0.00390625 new=0.234375 reasons=local_dip
node_id=37738 old=0.00390625 new=0.408203125 reasons=local_dip
node_id=37758 old=0.00390625 new=0.37109375 reasons=local_dip
node_id=37785 old=0.29296875 new=0.263671875 reasons=local_spike
node_id=37786 old=0.00390625 new=0.3076171875 reasons=local_dip
node_id=37807 old=0.00390625 new=0.341796875 reasons=local_dip
node_id=37808 old=0.46484375 new=0.3017578125 reasons=local_spike
node_id=37862 old=0.37890625 new=0.2919921875 reasons=local_spike
node_id=37863 old=0.00390625 new=0.2666015625 reasons=local_dip
node_id=37884 old=0.58203125 new=0.322265625 reasons=local_spike
node_id=37885 old=0.01171875 new=0.3681640625 reasons=local_dip
node_id=37888 old=0.203125 new=0.671875 reasons=local_dip
node_id=37908 old=0.0078125 new=0.5234375 reasons=local_dip
node_id=37969 old=0.00390625 new=0.365234375 reasons=local_dip
node_id=37970 old=0.58203125 new=0.3291015625 reasons=local_spike
node_id=37982 old=0.05078125 new=0.466796875 reasons=local_dip
node_id=37985 old=0.00390625 new=0.4375 reasons=local_dip
node_id=37998 old=0.58203125 new=0.3515625 reasons=local_dip
node_id=37999 old=8.37109375 new=0.3515625 reasons=above_type_max,local_spike
node_id=38000 old=0.0390625 new=0.49609375 reasons=local_dip
node_id=38027 old=0.0390625 new=0.322265625 reasons=local_dip
node_id=38053 old=0.01953125 new=0.423828125 reasons=local_dip
node_id=38059 old=0.17578125 new=0.552734375 reasons=local_dip
node_id=38066 old=0.01953125 new=0.466796875 reasons=local_dip
node_id=38067 old=0.671875 new=0.4228515625 reasons=local_spike
node_id=38089 old=0.0078125 new=0.392578125 reasons=local_dip
node_id=38114 old=0.5234375 new=0.314453125 reasons=local_spike
node_id=38115 old=0.00390625 new=0.365234375 reasons=local_dip
node_id=38128 old=0.671875 new=0.3203125 reasons=local_spike
node_id=38129 old=0.0234375 new=0.37890625 reasons=local_dip
node_id=38130 old=0.73046875 new=0.408203125 reasons=local_spike
node_id=38131 old=0.17578125 new=0.4228515625 reasons=local_dip
node_id=38150 old=0.0078125 new=0.466796875 reasons=local_dip
node_id=38163 old=0.5546875 new=0.3212890625 reasons=local_spike
node_id=38176 old=0.234375 new=0.7578125 reasons=local_dip
node_id=38184 old=0.0078125 new=1.005859375 reasons=local_dip
node_id=38187 old=0.234375 new=0.71484375 reasons=local_dip
node_id=38188 old=0.93359375 new=0.50390625 reasons=local_spike
node_id=38203 old=0.0078125 new=0.453125 reasons=local_dip
node_id=38204 old=0.61328125 new=0.431640625 reasons=local_spike
node_id=38216 old=0.0078125 new=0.3134765625 reasons=local_dip
node_id=38217 old=0.0078125 new=0.4013671875 reasons=local_dip
node_id=38227 old=0.01171875 new=0.39453125 reasons=local_dip
node_id=38230 old=0.00390625 new=0.408203125 reasons=local_dip
node_id=38271 old=0.00390625 new=0.205078125 reasons=local_dip
node_id=38272 old=0.49609375 new=0.2197265625 reasons=local_spike
node_id=38314 old=0.00390625 new=0.349609375 reasons=local_dip
node_id=38315 old=0.46484375 new=0.3349609375 reasons=local_spike
node_id=38353 old=0.00390625 new=0.306640625 reasons=local_dip
node_id=38354 old=0.49609375 new=0.2998046875 reasons=local_spike
node_id=38385 old=0.015625 new=0.3359375 reasons=local_dip
node_id=38428 old=0.02734375 new=0.4375 reasons=local_dip
node_id=38451 old=0.17578125 new=0.525390625 reasons=local_dip
node_id=38479 old=0.00390625 new=0.423828125 reasons=local_dip
node_id=38488 old=0.00390625 new=0.611328125 reasons=local_dip
node_id=38498 old=0.00390625 new=0.49560546875 reasons=local_dip
node_id=38533 old=0.58203125 new=0.248046875 reasons=local_spike
node_id=38534 old=0.015625 new=0.2119140625 reasons=local_dip
node_id=38535 old=0.41015625 new=0.19384765625 reasons=local_spike
node_id=38581 old=0.37890625 new=0.21875 reasons=local_spike
node_id=38582 old=0.0078125 new=0.197265625 reasons=local_dip
node_id=38648 old=0.00390625 new=0.349609375 reasons=local_dip
node_id=38681 old=0.00390625 new=0.38037109375 reasons=local_dip
node_id=38707 old=0.00390625 new=0.380859375 reasons=local_dip
node_id=38724 old=0.58203125 new=0.3359375 reasons=local_spike
node_id=38725 old=0.17578125 new=0.38671875 reasons=local_dip
node_id=38750 old=0.00390625 new=0.27734375 reasons=local_dip
node_id=38769 old=0.49609375 new=0.416015625 reasons=local_spike
node_id=38770 old=0.0078125 new=0.24755859375 reasons=local_dip
node_id=38777 old=0.01953125 new=0.39404296875 reasons=local_dip
node_id=38808 old=0.01953125 new=0.3203125 reasons=local_dip
node_id=38857 old=0.01171875 new=0.4375 reasons=local_dip
node_id=38962 old=0.00390625 new=0.3662109375 reasons=local_dip
node_id=38971 old=0.0078125 new=0.2919921875 reasons=local_dip
node_id=38972 old=0.4375 new=0.27685546875 reasons=local_spike
node_id=38990 old=0.00390625 new=0.380859375 reasons=local_dip
node_id=38993 old=0.17578125 new=0.58203125 reasons=local_dip
node_id=39003 old=0.17578125 new=0.380859375 reasons=local_dip
node_id=39004 old=0.90234375 new=0.3662109375 reasons=local_spike
node_id=39027 old=0.5234375 new=0.322265625 reasons=local_spike
node_id=39028 old=0.00390625 new=0.3076171875 reasons=local_dip
node_id=39029 old=0.49609375 new=0.30029296875 reasons=local_spike
node_id=39123 old=0.93359375 new=0.41015625 reasons=local_spike
node_id=39124 old=0.00390625 new=0.41015625 reasons=local_dip
node_id=39125 old=0.640625 new=0.41015625 reasons=local_spike
node_id=39129 old=0.03125 new=0.3330078125 reasons=local_dip
node_id=39130 old=0.640625 new=0.34228515625 reasons=local_spike
node_id=39134 old=0.015625 new=0.2587890625 reasons=local_dip
node_id=39135 old=0.4375 new=0.23095703125 reasons=local_spike
node_id=39202 old=0.00390625 new=0.451171875 reasons=local_dip
node_id=39207 old=0.00390625 new=0.29150390625 reasons=local_dip
node_id=39235 old=0.06640625 new=0.888671875 reasons=local_dip
node_id=39273 old=0.0078125 new=0.380859375 reasons=local_dip
node_id=39285 old=0.01171875 new=0.32080078125 reasons=local_dip
node_id=39317 old=0.015625 new=0.4375 reasons=local_dip
node_id=39352 old=0.00390625 new=0.306640625 reasons=local_dip
node_id=39368 old=0.26171875 new=0.712890625 reasons=local_dip
node_id=39369 old=1.89453125 new=0.6181640625 reasons=local_spike
node_id=39370 old=0.31640625 new=0.57080078125 reasons=local_dip
node_id=39376 old=1.01953125 new=0.3515625 reasons=local_spike
node_id=39398 old=0.03125 new=0.36328125 reasons=local_dip
node_id=39399 old=0.5234375 new=0.283203125 reasons=local_spike
node_id=39420 old=0.0078125 new=0.29296875 reasons=local_dip
node_id=39421 old=0.3515625 new=0.263671875 reasons=local_spike
node_id=39438 old=0.00390625 new=0.408203125 reasons=local_dip
node_id=39446 old=0.00390625 new=0.3974609375 reasons=local_dip
node_id=39485 old=0.00390625 new=0.4130859375 reasons=local_dip
node_id=39533 old=0.00390625 new=0.189453125 reasons=local_dip
node_id=39534 old=0.5234375 new=0.1962890625 reasons=local_spike
node_id=39563 old=0.01171875 new=0.37890625 reasons=local_dip
node_id=39605 old=0.01953125 new=0.69921875 reasons=local_dip
node_id=39606 old=0.3515625 new=0.69921875 reasons=local_spike
node_id=39607 old=0.00390625 new=0.27734375 reasons=local_dip
node_id=39622 old=0.17578125 new=0.701171875 reasons=local_dip
node_id=39644 old=0.0625 new=0.93359375 reasons=local_dip
node_id=39680 old=2.59765625 new=1.283203125 reasons=above_type_max
node_id=39681 old=2.80078125 new=1.1806640625 reasons=above_type_max
node_id=39682 old=0.05078125 new=1.12939453125 reasons=local_dip
node_id=39697 old=0.08203125 new=1.080078125 reasons=local_dip
node_id=39700 old=0.015625 new=0.392578125 reasons=local_dip
node_id=39701 old=0.5234375 new=0.3271484375 reasons=local_spike
node_id=39733 old=0.00390625 new=0.408203125 reasons=local_dip
node_id=39768 old=0.00390625 new=0.27734375 reasons=local_dip
node_id=39785 old=0.46484375 new=0.2763671875 reasons=local_spike
node_id=39786 old=0.02734375 new=0.39990234375 reasons=local_dip
node_id=39812 old=0.0078125 new=0.22607421875 reasons=local_dip
node_id=39850 old=0.01171875 new=0.306640625 reasons=local_dip
node_id=39864 old=0.0078125 new=0.3359375 reasons=local_dip
node_id=39871 old=0.17578125 new=0.5234375 reasons=local_dip
node_id=39883 old=0.17578125 new=0.541015625 reasons=local_dip
